2024_89_CemigReconfigurationCases/1_AlimsCemig/SDEU15/SDEU15SegmentosMT.dss
new line.TR12142321 bus1=BMT165948270.1,bus2=BMT165948271.1,Phases=1,Linecode=CAB202_3_1,Length=0.049946000,Units=km
new line.TR12142322 bus1=BMT165948271.1,bus2=BMT2583705B.1,Phases=1,Linecode=CAB202_3_1,Length=0.373988000,Units=km
new line.TR12142327 bus1=BMT165948271.1,bus2=BMT165948273.1,Phases=1,Linecode=CAB202_3_1,Length=0.190312000,Units=km
new line.TR12142330 bus1=BMT173136960.3,bus2=BMT173136962.3,Phases=1,Linecode=CAB202_3_1,Length=0.074003000,Units=km
new line.TR1216724 bus1=BMT125125081.1.2.3,bus2=BMT160818315.1.2.3,Phases=3,Linecode=CAB203_3_3,Length=0.118379000,Units=km
new line.TR1216731 bus1=BMT125125627.1,bus2=BMT2607876B.1,Phases=1,Linecode=CAB202_3_1,Length=0.168500000,Units=km
new line.TR1216738 bus1=BMT160818316.2,bus2=BMT160818318.2,Phases=1,Linecode=CAB202_3_1,Length=0.134210000,Units=km
new line.TR1216745 bus1=BMT160818316.1.2.3,bus2=BMT2607827B.1.2.3,Phases=3,Linecode=CAB203_3_3,Length=0.090474000,Units=km
new line.TR1216752 bus1=BMT1599729B.1.2.3,bus2=BMT2612447B.1.2.3,Phases=3,Linecode=CAB203_3_3,Length=0.257276000,Units=km
new line.TR1216759 bus1=BMT168861588.1,bus2=BMT168861590.1,Phases=1,Linecode=CAB103_3_1,Length=0.089474000,Units=km
new line.TR1216766 bus1=BMT168861588.1.2.3,bus2=BMT168861587.1.2.3,Phases=3,Linecode=CAB203_3_3,Length=0.108541000,Units=km
new line.TR1216773 bus1=BMT1599743B.1.2.3,bus2=BMT2621386B.1.2.3,Phases=3,Linecode=CAB203_3_3,Length=0.110038000,Units=km
new line.TR1216780 bus1=BMT168861586.3,bus2=BMT157002451.3,Phases=1,Linecode=CAB202_3_1,Length=0.102486000,Units=km
new line.TR1216787 bus1=BMT168861586.1.2.3,bus2=BMT2621449B.1.2.3,Phases=3,Linecode=CAB203_3_3,Length=0.300270000,Units=km
new line.TR1216794 bus1=BMT1599757B.1.2.3,bus2=BMT2622828B.1.2.3,Phases=3,Linecode=CAB203_3_3,Length=0.246948000,Units=km
new line.TR1216801 bus1=BMT168861584.1,bus2=BMT168861585.1,Phases=1,Linecode=CAB202_3_1,Length=0.212206000,Units=km
new line.TR1216808 bus1=BMT168861584.1.2.3,bus2=BMT2623773B.1.2.3,Phases=3,Linecode=CAB203_3_3,Length=0.092817000,Units=km
new line.TR1216815 bus1=BMT1599771B.1.2.3,bus2=BMT2623780B.1.2.3,Phases=3,Linecode=CAB203_3_3,Length=0.105156000,Units=km
new line.TR1216822 bus1=BMT168861582.2,bus2=BMT168861583.2,Phases=1,Linecode=CAB202_3_1,Length=0.162845000,Units=km
new line.TR1216829 bus1=BMT168861582.1.2.3,bus2=BMT2623871B.1.2.3,Phases=3,Linecode=CAB203_3_3,Length=0.145395000,Units=km
new line.TR1216836 bus1=BMT168861580.1.2.3,bus2=BMT168861581.1.2.3,Phases=3,Linecode=CAB202_3_3,Length=0.120458000,Units=km
new line.TR1216843 bus1=BMT168861580.3,bus2=BMT125139473.3,Phases=1,Linecode=CAB202_3_1,Length=0.093038000,Units=km
new line.TR1216850 bus1=BMT168861581.1.2.3,bus2=BMT168861597.1.2.3,Phases=3,Linecode=CAB103_3_3,Length=0.063268000,Units=km
new line.TR1216857 bus1=BMT1599799B.3,bus2=BMT125139585.3,Phases=1,Linecode=CAB202_3_1,Length=0.068376000,Units=km
new line.TR1216864 bus1=BMT1599806B.1,bus2=BMT2624774B.1,Phases=1,Linecode=CAB202_3_1,Length=0.462976000,Units=km
new line.TR1216871 bus1=BMT169225869.1,bus2=BMT169225871.1,Phases=1,Linecode=CAB103_3_1,Length=0.064053000,Units=km
new line.TR1216878 bus1=BMT169225869.1,bus2=BMT125125277.1,Phases=1,Linecode=CAB202_3_1,Length=0.151379000,Units=km
new line.TR1216885 bus1=BMT169225869.1,bus2=BMT2625488B.1,Phases=1,Linecode=CAB202_3_1,Length=0.155295000,Units=km
new line.TR1216892 bus1=BMT169225872.1,bus2=BMT169225873.1,Phases=1,Linecode=CAB103_3_1,Length=0.050017000,Units=km
new line.TR1216899 bus1=BMT169225872.1,bus2=BMT2633552B.1,Phases=1,Linecode=CAB202_3_1,Length=0.017471000,Units=km
new line.TR1216906 bus1=BMT169225875.1,bus2=BMT2615219B.1,Phases=1,Linecode=CAB202_3_1,Length=0.119310000,Units=km
new line.TR1216913 bus1=BMT169225875.1,bus2=BMT2615240B.1,Phases=1,Linecode=CAB202_3_1,Length=0.121289000,Units=km
new line.TR1216920 bus1=BMT152729027.1.2.3,bus2=BMT152729028.1.2.3,Phases=3,Linecode=CAB202_3_3,Length=0.171476000,Units=km
new line.TR1216927 bus1=BMT152729027.2,bus2=BMT2624578B.2,Phases=1,Linecode=CAB202_3_1,Length=0.134675000,Units=km
new line.TR1216941 bus1=BMT152729029.2,bus2=BMT2907938B.2,Phases=1,Linecode=CAB202_3_1,Length=0.152252000,Units=km
new line.TR1216948 bus1=BMT125117346.1.2.3,bus2=BMT173119500.1.2.3,Phases=3,Linecode=CAB203_3_3,Length=0.452279000,Units=km
new line.TR1216955 bus1=BMT173216060.2,bus2=BMT2617081B.2,Phases=1,Linecode=CAB202_3_1,Length=0.100052000,Units=km
new line.TR1216962 bus1=BMT173119500.1,bus2=BMT125117360.1,Phases=1,Linecode=CAB202_3_1,Length=0.451919000,Units=km
new line.TR1216969 bus1=BMT173119500.1.2.3,bus2=BMT2617172B.1.2.3,Phases=3,Linecode=CAB203_3_3,Length=0.479996000,Units=km
new line.TR1216976 bus1=BMT173216061.2,bus2=BMT173216062.2,Phases=1,Linecode=CAB102_3_1,Length=0.069679000,Units=km
new line.TR1216983 bus1=BMT173216061.2,bus2=BMT1599869B.2,Phases=1,Linecode=CAB202_3_1,Length=0.057708000,Units=km
new line.TR1216990 bus1=BMT1599869B.2,bus2=BMT2617116B.2,Phases=1,Linecode=CAB202_3_1,Length=0.171198000,Units=km
new line.TR1216997 bus1=BMT173216063.2,bus2=BMT173216064.2,Phases=1,Linecode=CAB202_3_1,Length=0.107738000,Units=km
new line.TR1217004 bus1=BMT125124668.1,bus2=BMT125124675.1,Phases=1,Linecode=CAB202_3_1,Length=0.219116000,Units=km
new line.TR1217011 bus1=BMT125117381.1.2.3,bus2=BMT2617305B.1.2.3,Phases=3,Linecode=CAB203_3_3,Length=0.119847000,Units=km
new line.TR1217018 bus1=BMT125117577.1,bus2=BMT2617137B.1,Phases=1,Linecode=CAB202_3_1,Length=0.126864000,Units=km
new line.TR1217025 bus1=BMT125124633.2,bus2=BMT2617347B.2,Phases=1,Linecode=CAB202_3_1,Length=0.398233000,Units=km
new line.TR1217032 bus1=BMT125117388.1.2.3,bus2=BMT173119503.1.2.3,Phases=3,Linecode=CAB203_3_3,Length=0.128104000,Units=km
new line.TR1217039 bus1=BMT125124682.1,bus2=BMT125124696.1,Phases=1,Linecode=CAB202_3_1,Length=0.123595000,Units=km
new line.TR1217046 bus1=BMT125124682.1,bus2=BMT125124703.1,Phases=1,Linecode=CAB202_3_1,Length=0.235925000,Units=km
new line.TR1217053 bus1=BMT173119507.1.2.3,bus2=BMT173119508.1.2.3,Phases=3,Linecode=CAB103_3_3,Length=0.043026000,Units=km
new line.TR1217060 bus1=BMT173119507.1,bus2=BMT173119509.1,Phases=1,Linecode=CAB102_3_1,Length=0.047185000,Units=km
new line.TR1217067 bus1=BMT173119507.1.2.3,bus2=BMT2609164B.1.2.3,Phases=3,Linecode=CAB203_3_3,Length=0.111247000,Units=km
new line.TR1217074 bus1=BMT125124444.3,bus2=BMT125124451.3,Phases=1,Linecode=CAB102_3_1,Length=0.048026000,Units=km
new line.TR1217081 bus1=BMT125117444.1.2.3,bus2=BMT2609185B.1.2.3,Phases=3,Linecode=CAB203_3_3,Length=0.106561000,Units=km
new line.TR1217088 bus1=BMT125117437.1,bus2=BMT2610788B.1,Phases=1,Linecode=CAB202_3_1,Length=0.199556000,Units=km
new line.TR12128698 bus1=BMT148802142.3,bus2=BMT8722337B.3,Phases=1,Linecode=CAB202_3_1,Length=0.019705000,Units=km
new line.TR12128699 bus1=BMT8722337B.3,bus2=BMT148821051.3,Phases=1,Linecode=CAB202_3_1,Length=0.302445000,Units=km
new line.TR12128702 bus1=BMT148821052.3,bus2=BMT148821053.3,Phases=1,Linecode=CAB202_3_1,Length=0.452867000,Units=km
new line.TR1216262 bus1=BMT125127209.1,bus2=BMT2616563B.1,Phases=1,Linecode=CAB202_3_1,Length=0.110946000,Units=km
new line.TR1216269 bus1=BMT1599456B.1,bus2=BMT125127216.1,Phases=1,Linecode=CAB202_3_1,Length=0.398250000,Units=km
new line.TR1216276 bus1=BMT125127223.1,bus2=BMT125127230.1,Phases=1,Linecode=CAB202_3_1,Length=0.090788000,Units=km
new line.TR1216283 bus1=BMT125127223.1,bus2=BMT2616591B.1,Phases=1,Linecode=CAB202_3_1,Length=0.009059000,Units=km
new line.TR1216290 bus1=BMT125117297.1.2.3,bus2=BMT2616605B.1.2.3,Phases=3,Linecode=CAB203_3_3,Length=0.097114000,Units=km
new line.TR1216297 bus1=BMT125127167.1,bus2=BMT2878153B.1,Phases=1,Linecode=CAB202_3_1,Length=0.058269000,Units=km
new line.TR1216311 bus1=BMT125117325.1.2.3,bus2=BMT125117332.1.2.3,Phases=3,Linecode=CAB203_3_3,Length=0.203105000,Units=km
new line.TR1216318 bus1=BMT163562801.1.2.3,bus2=BMT2616640B.1.2.3,Phases=3,Linecode=CAB203_3_3,Length=0.099757000,Units=km
new line.TR1216325 bus1=BMT173119499.1.2.3,bus2=BMT125117346.1.2.3,Phases=3,Linecode=CAB203_3_3,Length=0.228109000,Units=km
new line.TR1216332 bus1=BMT163562802.3,bus2=BMT163562803.3,Phases=1,Linecode=CAB202_3_1,Length=0.321078000,Units=km
new line.TR1216339 bus1=BMT163562802.1.2.3,bus2=BMT2616731B.1.2.3,Phases=3,Linecode=CAB203_3_3,Length=0.653715000,Units=km
new line.TR1216353 bus1=BMT163818035.1.2.3,bus2=BMT163817668.1.2.3,Phases=3,Linecode=CAB203_3_3,Length=0.078772000,Units=km
new line.TR1216360 bus1=BMT163818040.1.2.3,bus2=BMT163818041.1.2.3,Phases=3,Linecode=CAB203_3_3,Length=0.325407000,Units=km
new line.TR1216367 bus1=BMT163818040.1,bus2=BMT2616836B.1,Phases=1,Linecode=CAB202_3_1,Length=0.319335000,Units=km
new line.TR1216374 bus1=BMT163818041.1,bus2=BMT163818043.1,Phases=1,Linecode=CAB202_3_1,Length=0.108967000,Units=km
new line.TR1216381 bus1=BMT163818041.1.2.3,bus2=BMT2616962B.1.2.3,Phases=3,Linecode=CAB203_3_3,Length=0.078772000,Units=km
new line.TR1216388 bus1=BMT125124815.1.2.3,bus2=BMT163818044.1.2.3,Phases=3,Linecode=CAB203_3_3,Length=0.488586000,Units=km
new line.TR1216395 bus1=BMT160348502.3,bus2=BMT2616983B.3,Phases=1,Linecode=CAB202_3_1,Length=0.142286000,Units=km
new line.TR1216402 bus1=BMT163818044.2,bus2=BMT163818045.2,Phases=1,Linecode=CAB202_3_1,Length=0.119308000,Units=km
new line.TR1216409 bus1=BMT163818044.1.2.3,bus2=BMT2609528B.1.2.3,Phases=3,Linecode=CAB203_3_3,Length=0.129769000,Units=km
new line.TR1216416 bus1=BMT125124836.1.2.3,bus2=BMT163818046.1.2.3,Phases=3,Linecode=CAB203_3_3,Length=0.216462000,Units=km
new line.TR1216423 bus1=BMT125127013.2,bus2=BMT2609983B.2,Phases=1,Linecode=CAB202_3_1,Length=0.076635000,Units=km
new line.TR1216430 bus1=BMT163818046.1,bus2=BMT163818047.1,Phases=1,Linecode=CAB202_3_1,Length=0.522593000,Units=km
new line.TR1216437 bus1=BMT163818046.1.2.3,bus2=BMT3102531B.1.2.3,Phases=3,Linecode=CAB203_3_3,Length=0.099938000,Units=km
new line.TR1216444 bus1=BMT125127020.2,bus2=BMT125127027.2,Phases=1,Linecode=CAB202_3_1,Length=0.308569000,Units=km
new line.TR1216451 bus1=BMT125127020.2,bus2=BMT2609570B.2,Phases=1,Linecode=CAB202_3_1,Length=0.347469000,Units=km
new line.TR1216458 bus1=BMT1599568B.2,bus2=BMT2609507B.2,Phases=1,Linecode=CAB202_3_1,Length=0.090584000,Units=km
new line.TR1216465 bus1=BMT163818048.2,bus2=BMT163818049.2,Phases=1,Linecode=CAB202_3_1,Length=0.305592000,Units=km
new line.TR1216472 bus1=BMT163818048.1.2.3,bus2=BMT3102566B.1.2.3,Phases=3,Linecode=CAB203_3_3,Length=0.379809000,Units=km
new line.TR1216479 bus1=BMT1599582B.1.2.3,bus2=BMT3102657B.1.2.3,Phases=3,Linecode=CAB203_3_3,Length=0.055191000,Units=km
new line.TR1216486 bus1=BMT163818050.2,bus2=BMT163818051.2,Phases=1,Linecode=CAB202_3_1,Length=0.035367000,Units=km
new line.TR1216493 bus1=BMT163818050.1.2.3,bus2=BMT163818052.1.2.3,Phases=3,Linecode=CAB203_3_3,Length=0.394787000,Units=km
new line.TR1216500 bus1=BMT163818052.1.2.3,bus2=BMT163818053.1.2.3,Phases=3,Linecode=CAB202_3_3,Length=0.122421000,Units=km
new line.TR1216507 bus1=BMT160818300.1,bus2=BMT160818301.1,Phases=1,Linecode=CAB202_3_1,Length=0.072826000,Units=km
new line.TR1216514 bus1=BMT160818300.1.2.3,bus2=BMT3102762B.1.2.3,Phases=3,Linecode=CAB203_3_3,Length=0.110459000,Units=km
new line.TR1216521 bus1=BMT160818304.3,bus2=BMT3102839B.3,Phases=1,Linecode=CAB202_3_1,Length=0.060832000,Units=km
new line.TR1216528 bus1=BMT160818304.1.2.3,bus2=BMT3102888B.1.2.3,Phases=3,Linecode=CAB203_3_3,Length=0.099678000,Units=km
new line.TR1216535 bus1=BMT160818306.1,bus2=BMT160818307.1,Phases=1,Linecode=CAB202_3_1,Length=0.128593000,Units=km
new line.TR1216542 bus1=BMT160818306.2,bus2=BMT3103077B.2,Phases=1,Linecode=CAB202_3_1,Length=0.007619000,Units=km
new line.TR1216549 bus1=BMT160818306.1.2.3,bus2=BMT3103084B.1.2.3,Phases=3,Linecode=CAB203_3_3,Length=0.409401000,Units=km
new line.TR1216563 bus1=BMT136045949.1.2.3,bus2=BMT3103140B.1.2.3,Phases=3,Linecode=CAB203_3_3,Length=0.119610000,Units=km
new line.TR1216570 bus1=BMT1599631B.1.2.3,bus2=BMT1985513B.1.2.3,Phases=3,Linecode=CAB203_3_3,Length=0.125342000,Units=km
new line.TR1216577 bus1=BMT163923429.2,bus2=BMT163923430.2,Phases=1,Linecode=CAB202_3_1,Length=0.099351000,Units=km
new line.TR1216584 bus1=BMT163923429.2,bus2=BMT2607589B.2,Phases=1,Linecode=CAB202_3_1,Length=0.421484000,Units=km
new line.TR1216591 bus1=BMT125125886.2,bus2=BMT163923431.2,Phases=1,Linecode=CAB202_3_1,Length=0.089030000,Units=km
new line.TR1216598 bus1=BMT125126642.2,bus2=BMT125126649.2,Phases=1,Linecode=CAB202_3_1,Length=0.146213000,Units=km
new line.TR1216605 bus1=BMT125125886.2,bus2=BMT163923432.2,Phases=1,Linecode=CAB202_3_1,Length=0.247246000,Units=km
new line.TR1216612 bus1=BMT125126649.2,bus2=BMT125126656.2,Phases=1,Linecode=CAB202_3_1,Length=0.421439000,Units=km
new line.TR1216619 bus1=BMT125126649.2,bus2=BMT125126663.2,Phases=1,Linecode=CAB202_3_1,Length=0.360126000,Units=km
new line.TR1216626 bus1=BMT159797156.2,bus2=BMT159797157.2,Phases=1,Linecode=CAB103_3_1,Length=0.038341000,Units=km
new line.TR1216633 bus1=BMT159797156.2,bus2=BMT2608107B.2,Phases=1,Linecode=CAB202_3_1,Length=0.205422000,Units=km
new line.TR1216640 bus1=BMT125126530.2,bus2=BMT125126537.2,Phases=1,Linecode=CAB202_3_1,Length=0.053056000,Units=km
new line.TR1216647 bus1=BMT125125970.2,bus2=BMT2605874B.2,Phases=1,Linecode=CAB202_3_1,Length=0.036248000,Units=km
new line.TR12114270 bus1=BMT160818315.2,bus2=BMT8707292B.2,Phases=1,Linecode=CAB202_3_1,Length=0.109161000,Units=km
new line.TR12114271 bus1=BMT8707292B.2,bus2=BMT160818317.2,Phases=1,Linecode=CAB202_3_1,Length=0.118944000,Units=km
new line.TR12115917 bus1=BMT161513891.1.2.3,bus2=BMT8708822B.1.2.3,Phases=3,Linecode=CABA06_3_3,Length=0.022369000,Units=km
new line.TR12115918 bus1=BMT8708822B.1.2.3,bus2=BMT8708824B.1.2.3,Phases=3,Linecode=CABA06_3_3,Length=0.029557000,Units=km
new line.TR12115919 bus1=BMT8708824B.1.2.3,bus2=BMT8708825B.1.2.3,Phases=3,Linecode=CABA06_3_3,Length=0.029540000,Units=km
new line.TR12115925 bus1=BMT8708825B.1.2.3,bus2=BMT148388155.1.2.3,Phases=3,Linecode=CABA06_3_3,Length=0.040511000,Units=km
new line.TR12115926 bus1=BMT161513867.1.2.3,bus2=BMT161513868.1.2.3,Phases=3,Linecode=CAB902_4_3,Length=0.044737000,Units=km
new line.TR1217655 bus1=BMT170301167.3,bus2=BMT2589592B.3,Phases=1,Linecode=CAB202_3_1,Length=0.151378000,Units=km
new line.TR1217662 bus1=BMT170301167.3,bus2=BMT2589599B.3,Phases=1,Linecode=CAB202_3_1,Length=0.076346000,Units=km
new line.TR1217669 bus1=BMT170301168.3,bus2=BMT170301170.3,Phases=1,Linecode=CAB202_3_1,Length=0.201162000,Units=km
new line.TR1217676 bus1=BMT170301168.3,bus2=BMT2588955B.3,Phases=1,Linecode=CAB202_3_1,Length=0.128430000,Units=km
new line.TR1217683 bus1=BMT170301168.3,bus2=BMT2589522B.3,Phases=1,Linecode=CAB202_3_1,Length=0.115171000,Units=km
new line.TR1217690 bus1=BMT170301171.3,bus2=BMT2588920B.3,Phases=1,Linecode=CAB202_3_1,Length=0.157033000,Units=km
new line.TR1217697 bus1=BMT170301171.3,bus2=BMT2588934B.3,Phases=1,Linecode=CAB202_3_1,Length=0.118228000,Units=km
new line.TR1217704 bus1=BMT1600275B.3,bus2=BMT170301172.3,Phases=1,Linecode=CAB202_3_1,Length=0.386990000,Units=km
new line.TR1217711 bus1=BMT1600282B.1.2.3,bus2=BMT2595192B.1.2.3,Phases=3,Linecode=CAB203_3_3,Length=0.057793000,Units=km
new line.TR1217718 bus1=BMT125123478.2,bus2=BMT125123485.2,Phases=1,Linecode=CAB202_3_1,Length=0.314320000,Units=km
new line.TR1217725 bus1=BMT125123478.2,bus2=BMT2594548B.2,Phases=1,Linecode=CAB202_3_1,Length=0.187612000,Units=km
new line.TR1217732 bus1=BMT125123492.2,bus2=BMT2170789B.2,Phases=1,Linecode=CAB202_3_1,Length=0.053016000,Units=km
new line.TR1217739 bus1=BMT125123492.2,bus2=BMT2594618B.2,Phases=1,Linecode=CAB202_3_1,Length=0.059154000,Units=km
new line.TR1217746 bus1=BMT125123492.2,bus2=BMT2594744B.2,Phases=1,Linecode=CAB202_3_1,Length=0.355077000,Units=km
new line.TR1217753 bus1=BMT1600303B.2,bus2=BMT125123520.2,Phases=1,Linecode=CAB202_3_1,Length=0.127066000,Units=km
new line.TR1217760 bus1=BMT1600310B.2,bus2=BMT2594723B.2,Phases=1,Linecode=CAB202_3_1,Length=0.075023000,Units=km
new line.TR1217767 bus1=BMT165523431.1.2.3,bus2=BMT165523432.1.2.3,Phases=3,Linecode=CAB203_3_3,Length=0.228150000,Units=km
new line.TR1217774 bus1=BMT165523431.1.2.3,bus2=BMT2588353B.1.2.3,Phases=3,Linecode=CAB203_3_3,Length=0.192152000,Units=km
new line.TR1217781 bus1=BMT165523432.1.2.3,bus2=BMT125117703.1.2.3,Phases=3,Linecode=CAB103_3_3,Length=0.055596000,Units=km
new line.TR1217788 bus1=BMT1600331B.1.2.3,bus2=BMT2588346B.1.2.3,Phases=3,Linecode=CAB203_3_3,Length=0.274726000,Units=km
new line.TR1217795 bus1=BMT125117682.1.2.3,bus2=BMT2588339B.1.2.3,Phases=3,Linecode=CAB203_3_3,Length=0.297410000,Units=km
new line.TR1217802 bus1=BMT157862827.2,bus2=BMT2936722B.2,Phases=1,Linecode=CAB202_3_1,Length=0.170186000,Units=km
new line.TR1217809 bus1=BMT125117689.1.2.3,bus2=BMT125117696.1.2.3,Phases=3,Linecode=CAB203_3_3,Length=0.092223000,Units=km
new line.TR1217816 bus1=BMT125123345.1,bus2=BMT2588311B.1,Phases=1,Linecode=CAB202_3_1,Length=0.119439000,Units=km
new line.TR1217823 bus1=BMT137662739.1.2.3,bus2=BMT2588304B.1.2.3,Phases=3,Linecode=CAB203_3_3,Length=0.115560000,Units=km
new line.TR1217830 bus1=BMT125123352.1,bus2=BMT125123359.1,Phases=1,Linecode=CAB202_3_1,Length=0.036067000,Units=km
new line.TR1217837 bus1=BMT125123352.1,bus2=BMT2588318B.1,Phases=1,Linecode=CAB202_3_1,Length=0.329408000,Units=km
new line.TR1217844 bus1=BMT137662746.1.2.3,bus2=BMT2588290B.1.2.3,Phases=3,Linecode=CAB203_3_3,Length=0.100434000,Units=km
new line.TR1217851 bus1=BMT163622834.1,bus2=BMT163622835.1,Phases=1,Linecode=CAB202_3_1,Length=0.142622000,Units=km
new line.TR1217858 bus1=BMT125117752.1.2.3,bus2=BMT125117766.1.2.3,Phases=3,Linecode=CAB203_3_3,Length=0.360219000,Units=km
new line.TR1217865 bus1=BMT160982865.1,bus2=BMT2898033B.1,Phases=1,Linecode=CAB202_3_1,Length=0.132919000,Units=km
new line.TR1217872 bus1=BMT1600380B.1.2.3,bus2=BMT2588192B.1.2.3,Phases=3,Linecode=CAB203_3_3,Length=0.060093000,Units=km
new line.TR1217879 bus1=BMT125122771.2,bus2=BMT1600401B.2,Phases=1,Linecode=CAB202_3_1,Length=0.417522000,Units=km
new line.TR1217886 bus1=BMT125117773.1.2.3,bus2=BMT2588178B.1.2.3,Phases=3,Linecode=CAB203_3_3,Length=0.095113000,Units=km
new line.TR1217893 bus1=BMT125117850.1.2.3,bus2=BMT125117857.1.2.3,Phases=3,Linecode=CAB203_3_3,Length=0.620909000,Units=km
new line.TR1217900 bus1=BMT125122659.1,bus2=BMT2578805B.1,Phases=1,Linecode=CAB202_3_1,Length=0.079535000,Units=km
new line.TR1217907 bus1=BMT1600401B.2,bus2=BMT125122778.2,Phases=1,Linecode=CAB202_3_1,Length=0.342154000,Units=km
new line.TR1217914 bus1=BMT125117857.1.2.3,bus2=BMT125117864.1.2.3,Phases=3,Linecode=CAB203_3_3,Length=0.360662000,Units=km
new line.TR1217921 bus1=BMT125122547.3,bus2=BMT2578343B.3,Phases=1,Linecode=CAB202_3_1,Length=0.034997000,Units=km
new line.TR1217928 bus1=BMT1600415B.1,bus2=BMT2578826B.1,Phases=1,Linecode=CAB202_3_1,Length=0.094670000,Units=km
new line.TR1217935 bus1=BMT1600422B.1,bus2=BMT1600429B.1,Phases=1,Linecode=CAB202_3_1,Length=0.370412000,Units=km
new line.TR1217942 bus1=BMT1600429B.1,bus2=BMT125122673.1,Phases=1,Linecode=CAB202_3_1,Length=0.073839000,Units=km
new line.TR1217949 bus1=BMT125117871.1.2.3,bus2=BMT125117878.1.2.3,Phases=3,Linecode=CAB203_3_3,Length=0.323283000,Units=km
new line.TR1217956 bus1=BMT125122554.3,bus2=BMT125122561.3,Phases=1,Linecode=CAB202_3_1,Length=0.144265000,Units=km
new line.TR1217963 bus1=BMT125122554.3,bus2=BMT2577524B.3,Phases=1,Linecode=CAB202_3_1,Length=0.075455000,Units=km
new line.TR1217970 bus1=BMT1600450B.3,bus2=BMT125122575.3,Phases=1,Linecode=CAB202_3_1,Length=0.288009000,Units=km
new line.TR1217977 bus1=BMT125122575.3,bus2=BMT125122589.3,Phases=1,Linecode=CAB202_3_1,Length=0.084878000,Units=km
new line.TR1217984 bus1=BMT125122575.3,bus2=BMT2577489B.3,Phases=1,Linecode=CAB202_3_1,Length=0.123528000,Units=km
new line.TR1217991 bus1=BMT1600464B.3,bus2=BMT125122596.3,Phases=1,Linecode=CAB202_3_1,Length=0.357250000,Units=km
new line.TR12116629 bus1=BMT158778394.1.2.3,bus2=BMT148389398.1.2.3,Phases=3,Linecode=CAB202_3_3,Length=0.050266000,Units=km
new line.TR12116630 bus1=BMT1912468B.1.2.3,bus2=BMT173136951.1.2.3,Phases=3,Linecode=CAB202_3_3,Length=0.098443000,Units=km
new line.TR12155121 bus1=BMT163923432.2,bus2=BMT163923434.2,Phases=1,Linecode=CAB103_3_1,Length=0.019423000,Units=km
new line.TR1215618 bus1=BMT1599064B.1.2.3,bus2=BMT2373852B.1.2.3,Phases=3,Linecode=CABA08_3_3,Length=0.068140000,Units=km
new line.TR1215723 bus1=BMT169432984.1.2.3,bus2=BMT2595913B.1.2.3,Phases=3,Linecode=CAB203_3_3,Length=0.032073000,Units=km
new line.TR1215730 bus1=BMT1599148B.1.2.3,bus2=BMT169432985.1.2.3,Phases=3,Linecode=CAB203_3_3,Length=0.110109000,Units=km
new line.TR1215737 bus1=BMT169432985.2,bus2=BMT169432986.2,Phases=1,Linecode=CAB102_3_1,Length=0.064279000,Units=km
new line.TR1215744 bus1=BMT169432985.1.2.3,bus2=BMT169432987.1.2.3,Phases=3,Linecode=CAB203_3_3,Length=0.420481000,Units=km
new line.TR1215751 bus1=BMT169432987.3,bus2=BMT169432988.3,Phases=1,Linecode=CAB202_3_1,Length=0.350680000,Units=km
new line.TR1215758 bus1=BMT169432987.1.2.3,bus2=BMT2595962B.1.2.3,Phases=3,Linecode=CAB203_3_3,Length=0.335362000,Units=km
new line.TR1215765 bus1=BMT1599169B.1.2.3,bus2=BMT2611880B.1.2.3,Phases=3,Linecode=CAB203_3_3,Length=0.214229000,Units=km
new line.TR1215772 bus1=BMT169432989.1.2.3,bus2=BMT169432990.1.2.3,Phases=3,Linecode=CAB203_3_3,Length=0.542299000,Units=km
new line.TR1215779 bus1=BMT169432989.2,bus2=BMT2624410B.2,Phases=1,Linecode=CAB202_3_1,Length=0.140221000,Units=km
new line.TR1215786 bus1=BMT125117178.1.2.3,bus2=BMT125117192.1.2.3,Phases=3,Linecode=CAB203_3_3,Length=0.619899000,Units=km
new line.TR1215793 bus1=BMT163888609.2,bus2=BMT2616178B.2,Phases=1,Linecode=CAB202_3_1,Length=0.112416000,Units=km
new line.TR1215800 bus1=BMT125117192.1.2.3,bus2=BMT2616556B.1.2.3,Phases=3,Linecode=CAB203_3_3,Length=0.512929000,Units=km
new line.TR1218117 bus1=BMT125122428.2,bus2=BMT2587884B.2,Phases=1,Linecode=CAB202_3_1,Length=0.164031000,Units=km
new line.TR1218124 bus1=BMT125122365.1,bus2=BMT2587842B.1,Phases=1,Linecode=CAB202_3_1,Length=0.432669000,Units=km
new line.TR1218131 bus1=BMT125117934.1.2.3,bus2=BMT2588066B.1.2.3,Phases=3,Linecode=CAB203_3_3,Length=0.078254000,Units=km
new line.TR1218138 bus1=BMT125122435.2,bus2=BMT125122442.2,Phases=1,Linecode=CAB202_3_1,Length=0.379916000,Units=km
new line.TR1218145 bus1=BMT125122449.2,bus2=BMT2574864B.2,Phases=1,Linecode=CAB202_3_1,Length=0.379224000,Units=km
new line.TR1218152 bus1=BMT1600555B.2,bus2=BMT2574913B.2,Phases=1,Linecode=CAB202_3_1,Length=0.124761000,Units=km
new line.TR1218159 bus1=BMT125117948.1.2.3,bus2=BMT2582347B.1.2.3,Phases=3,Linecode=CAB203_3_3,Length=0.082013000,Units=km
new line.TR1218166 bus1=BMT169225712.1,bus2=BMT2582438B.1,Phases=1,Linecode=CAB202_3_1,Length=0.125054000,Units=km
new line.TR1218173 bus1=BMT125122372.1,bus2=BMT125122379.1,Phases=1,Linecode=CAB102_3_1,Length=0.092338000,Units=km
new line.TR1218180 bus1=BMT125122407.1,bus2=BMT2587821B.1,Phases=1,Linecode=CAB202_3_1,Length=0.102818000,Units=km
new line.TR1218187 bus1=BMT125122372.1,bus2=BMT125122386.1,Phases=1,Linecode=CAB202_3_1,Length=0.007619000,Units=km
new line.TR1218194 bus1=BMT154998680.1.2.3,bus2=BMT2583362B.1.2.3,Phases=3,Linecode=CAB203_3_3,Length=0.103308000,Units=km
new line.TR1218201 bus1=BMT169225713.1,bus2=BMT2575025B.1,Phases=1,Linecode=CAB202_3_1,Length=0.272497000,Units=km
new line.TR1218208 bus1=BMT169225713.1,bus2=BMT2582508B.1,Phases=1,Linecode=CAB202_3_1,Length=0.050175000,Units=km
new line.TR1218215 bus1=BMT1600590B.1,bus2=BMT2575039B.1,Phases=1,Linecode=CAB202_3_1,Length=0.125053000,Units=km
new line.TR1218222 bus1=BMT169225714.1,bus2=BMT169225717.1,Phases=1,Linecode=CAB202_3_1,Length=0.277931000,Units=km
...
