2024_89_CemigReconfigurationCases/1_AlimsCemig/SDEU15/SDEU15ChavesMT.dss
new line.CTR103185 bus1=BMT125117766.3,bus2=BMT165947844.3,Phases=1,LineCode=tieSwitch1,Length=0.001,Units=km,switch=T !numEQ 27079
new line.CTR10344 bus1=BMT125125081.1,bus2=BMT125125627.1,Phases=1,LineCode=tieSwitch1,Length=0.001,Units=km,switch=T !numEQ 130561
new line.CTR115554 bus1=BMT125125109.1.2.3,bus2=BMT172497515.1.2.3,Phases=3,LineCode=tieSwitch,Length=0.001,Units=km,switch=T !numEQ 100858
new line.CTR115743 bus1=BMT152605074.1.2.3,bus2=BMT2583621.1.2.3,Phases=3,LineCode=tieSwitch,Length=0.001,Units=km,switch=T !numEQ 27665
open line.CTR115743 term=1
new line.CTR115750 bus1=BMT125127930.1.2.3,bus2=BMT125127944.1.2.3,Phases=3,LineCode=tieSwitch,Length=0.001,Units=km,switch=T !numEQ 4005
new line.CTR115764 bus1=BMT125128112.1.2.3,bus2=BMT157398780.1.2.3,Phases=3,LineCode=tieSwitch,Length=0.001,Units=km,switch=T !numEQ 97741
new line.CTR115771 bus1=BMT125140593.1,bus2=BMT169429648.1,Phases=1,LineCode=tieSwitch1,Length=0.001,Units=km,switch=T !numEQ 99967
new line.CTR115778 bus1=BMT125140607.1.2.3,bus2=BMT125140621.1.2.3,Phases=3,LineCode=tieSwitch,Length=0.001,Units=km,switch=T !numEQ 97740
new line.CTR115785 bus1=BMT125128175.1,bus2=BMT125140509.1,Phases=1,LineCode=tieSwitch1,Length=0.001,Units=km,switch=T !numEQ 26636
new line.CTR115792 bus1=BMT125128196.1.2.3,bus2=BMT162251665.1.2.3,Phases=3,LineCode=tieSwitch,Length=0.001,Units=km,switch=T !numEQ 26017
new line.CTR115799 bus1=BMT125128630.2,bus2=BMT125139879.2,Phases=1,LineCode=tieSwitch1,Length=0.001,Units=km,switch=T !numEQ 26013
new line.CTR115813 bus1=BMT125128322.3,bus2=BMT161033926.3,Phases=1,LineCode=tieSwitch1,Length=0.001,Units=km,switch=T !numEQ 26586
new line.CTR115827 bus1=BMT125128420.1.2.3,bus2=BMT125128602.1.2.3,Phases=3,LineCode=tieSwitch,Length=0.001,Units=km,switch=T !numEQ 26039
new line.CTR115834 bus1=BMT125128658.1,bus2=BMT125139865.1,Phases=1,LineCode=tieSwitch1,Length=0.001,Units=km,switch=T !numEQ 26353
new line.CTR115883 bus1=BMT125129008.3,bus2=BMT168075965.3,Phases=1,LineCode=tieSwitch1,Length=0.001,Units=km,switch=T !numEQ 27726
new line.CTR115890 bus1=BMT125129246.1.2.3,bus2=BMT125129253.1.2.3,Phases=3,LineCode=tieSwitch,Length=0.001,Units=km,switch=T !numEQ 26202
new line.CTR115897 bus1=BMT125125907.2,bus2=BMT159797155.2,Phases=1,LineCode=tieSwitch1,Length=0.001,Units=km,switch=T !numEQ 116315
new line.CTR115911 bus1=BMT125138381.3,bus2=BMT125138759.3,Phases=1,LineCode=tieSwitch1,Length=0.001,Units=km,switch=T !numEQ 97296
new line.CTR115918 bus1=BMT125138290.1,bus2=BMT171788651.1,Phases=1,LineCode=tieSwitch1,Length=0.001,Units=km,switch=T !numEQ 97285
new line.CTR115925 bus1=BMT125128896.1.2.3,bus2=BMT125138276.1.2.3,Phases=3,LineCode=tieSwitch,Length=0.001,Units=km,switch=T !numEQ 27828
new line.CTR115932 bus1=BMT125128889.3,bus2=BMT125138262.3,Phases=1,LineCode=tieSwitch1,Length=0.001,Units=km,switch=T !numEQ 27162
new line.CTR115939 bus1=BMT125128903.1.2.3,bus2=BMT170837105.1.2.3,Phases=3,LineCode=tieSwitch,Length=0.001,Units=km,switch=T !numEQ 26023
new line.CTR115974 bus1=BMT125137023.1,bus2=BMT125137597.1,Phases=1,LineCode=tieSwitch1,Length=0.001,Units=km,switch=T !numEQ 97290
new line.CTR115981 bus1=BMT125137086.1,bus2=BMT125137429.1,Phases=1,LineCode=tieSwitch1,Length=0.001,Units=km,switch=T !numEQ 27739
new line.CTR115988 bus1=BMT125137464.1,bus2=BMT125137541.1,Phases=1,LineCode=tieSwitch1,Length=0.001,Units=km,switch=T !numEQ 27731
new line.CTR115995 bus1=BMT125137590.1,bus2=BMT1705289.1,Phases=1,LineCode=tieSwitch1,Length=0.001,Units=km,switch=T !numEQ 120501
open line.CTR115995 term=1
new line.CTR116002 bus1=BMT125137443.1,bus2=BMT125137478.1,Phases=1,LineCode=tieSwitch1,Length=0.001,Units=km,switch=T !numEQ 99850
new line.CTR116009 bus1=BMT125137142.1,bus2=BMT160617622.1,Phases=1,LineCode=tieSwitch1,Length=0.001,Units=km,switch=T !numEQ 27039
new line.CTR116023 bus1=BMT125137912.3,bus2=BMT152069814.3,Phases=1,LineCode=tieSwitch1,Length=0.001,Units=km,switch=T !numEQ 26606
new line.CTR116030 bus1=BMT125135959.3,bus2=BMT125136015.3,Phases=1,LineCode=tieSwitch1,Length=0.001,Units=km,switch=T !numEQ 97281
new line.CTR116037 bus1=BMT125129043.1.2.3,bus2=BMT165027310.1.2.3,Phases=3,LineCode=tieSwitch,Length=0.001,Units=km,switch=T !numEQ 26025
new line.CTR116044 bus1=BMT125129113.1.2.3,bus2=BMT151661483.1.2.3,Phases=3,LineCode=tieSwitch,Length=0.001,Units=km,switch=T !numEQ 26001
new line.CTR116051 bus1=BMT125129127.1,bus2=BMT125135700.1,Phases=1,LineCode=tieSwitch1,Length=0.001,Units=km,switch=T !numEQ 97706
new line.CTR116058 bus1=BMT125129274.1.2.3,bus2=BMT172070855.1.2.3,Phases=3,LineCode=tieSwitch,Length=0.001,Units=km,switch=T !numEQ 27566
new line.CTR116072 bus1=BMT125129267.1.2.3,bus2=BMT125129309.1.2.3,Phases=3,LineCode=tieSwitch,Length=0.001,Units=km,switch=T !numEQ 97707
new line.CTR116079 bus1=BMT125129295.1.2.3,bus2=BMT171423270.1.2.3,Phases=3,LineCode=tieSwitch,Length=0.001,Units=km,switch=T !numEQ 26049
new line.CTR116093 bus1=BMT125129428.1.2.3,bus2=BMT160087647.1.2.3,Phases=3,LineCode=tieSwitch,Length=0.001,Units=km,switch=T !numEQ 26660
new line.CTR116100 bus1=BMT125132760.1.2.3,bus2=BMT158585057.1.2.3,Phases=3,LineCode=tieSwitch,Length=0.001,Units=km,switch=T !numEQ 91919
new line.CTR116107 bus1=BMT125132802.1.2.3,bus2=BMT125135441.1.2.3,Phases=3,LineCode=tieSwitch,Length=0.001,Units=km,switch=T !numEQ 27406
new line.CTR116114 bus1=BMT158585066.1.2.3,bus2=BMT125132837.1.2.3,Phases=3,LineCode=tieSwitch,Length=0.001,Units=km,switch=T !numEQ 27729
new line.CTR116121 bus1=BMT125133348.1.2.3,bus2=BMT151862726.1.2.3,Phases=3,LineCode=tieSwitch,Length=0.001,Units=km,switch=T !numEQ 26609
new line.CTR116128 bus1=BMT125132949.1.2.3,bus2=BMT172790218.1.2.3,Phases=3,LineCode=tieSwitch,Length=0.001,Units=km,switch=T !numEQ 97400
new line.CTR116142 bus1=BMT125129477.1,bus2=BMT170104923.1,Phases=1,LineCode=tieSwitch1,Length=0.001,Units=km,switch=T !numEQ 27404
new line.CTR116149 bus1=BMT125130233.3,bus2=BMT146538900.3,Phases=1,LineCode=tieSwitch1,Length=0.001,Units=km,switch=T !numEQ 26588
new line.CTR116156 bus1=BMT125133705.1,bus2=BMT171746534.1,Phases=1,LineCode=tieSwitch1,Length=0.001,Units=km,switch=T !numEQ 97366
new line.CTR116177 bus1=BMT125133712.1,bus2=BMT125133789.1,Phases=1,LineCode=tieSwitch1,Length=0.001,Units=km,switch=T !numEQ 97317
new line.CTR116184 bus1=BMT125129596.1.2.3,bus2=BMT125129687.1.2.3,Phases=3,LineCode=tieSwitch,Length=0.001,Units=km,switch=T !numEQ 27466
new line.CTR116191 bus1=BMT125130254.1,bus2=BMT125130394.1,Phases=1,LineCode=tieSwitch1,Length=0.001,Units=km,switch=T !numEQ 26603
new line.CTR116205 bus1=BMT125132928.1.2.3,bus2=BMT154657191.1.2.3,Phases=3,LineCode=tieSwitch,Length=0.001,Units=km,switch=T !numEQ 27071
new line.CTR106209 bus1=BMT151864495.3,bus2=BMT152069819.3,Phases=1,LineCode=tieSwitch1,Length=0.001,Units=km,switch=T !numEQ 122579
new line.CTR106517 bus1=BMT125135553.1.2.3,bus2=BMT125135560.1.2.3,Phases=3,LineCode=tieSwitch,Length=0.001,Units=km,switch=T !numEQ 138396
new line.CTR11863 bus1=BMT125126061.2,bus2=BMT159543589.2,Phases=1,LineCode=tieSwitch1,Length=0.001,Units=km,switch=T !numEQ 124728
new line.CTR118865 bus1=BMT125118060.2,bus2=BMT125119663.2,Phases=1,LineCode=tieSwitch1,Length=0.001,Units=km,switch=T !numEQ 100855
new line.CTR120160 bus1=BMT125121602.3,bus2=BMT154998752.3,Phases=1,LineCode=tieSwitch1,Length=0.001,Units=km,switch=T !numEQ 153744
new line.CTR120167 bus1=BMT125134398.1,bus2=BMT125134447.1,Phases=1,LineCode=tieSwitch1,Length=0.001,Units=km,switch=T !numEQ 26674
new line.CTR133159 bus1=BMT125133684.1,bus2=BMT169853815.1,Phases=1,LineCode=tieSwitch1,Length=0.001,Units=km,switch=T !numEQ 153659
new line.CTR134454 bus1=BMT125140754.3,bus2=BMT125140761.3,Phases=1,LineCode=tieSwitch1,Length=0.001,Units=km,switch=T !numEQ 201552
new line.CTR148328 bus1=BMT125127790.1.2.3,bus2=BMT170380172.1.2.3,Phases=3,LineCode=tieSwitch,Length=0.001,Units=km,switch=T !numEQ 140763
new line.CTR148349 bus1=BMT125134314.1,bus2=BMT168509225.1,Phases=1,LineCode=tieSwitch1,Length=0.001,Units=km,switch=T !numEQ 142760
new line.CTR148496 bus1=BMT125134622.1,bus2=BMT125134629.1,Phases=1,LineCode=tieSwitch1,Length=0.001,Units=km,switch=T !numEQ 153656
new line.CTR148797 bus1=BMT125138528.2,bus2=BMT125138577.2,Phases=1,LineCode=tieSwitch1,Length=0.001,Units=km,switch=T !numEQ 140774
new line.CTR14880 bus1=BMT125129400.1.2.3,bus2=BMT129150585.1.2.3,Phases=3,LineCode=tieSwitch,Length=0.001,Units=km,switch=T !numEQ 135983
new line.CTR148804 bus1=BMT125117388.2,bus2=BMT125124633.2,Phases=1,LineCode=tieSwitch1,Length=0.001,Units=km,switch=T !numEQ 145040
new line.CTR148867 bus1=BMT125128434.1.2.3,bus2=BMT145193017.1.2.3,Phases=3,LineCode=tieSwitch,Length=0.001,Units=km,switch=T !numEQ 144450
new line.CTR148881 bus1=BMT125122435.2,bus2=BMT125122449.2,Phases=1,LineCode=tieSwitch1,Length=0.001,Units=km,switch=T !numEQ 143365
new line.CTR148888 bus1=BMT125122134.1,bus2=BMT169225727.1,Phases=1,LineCode=tieSwitch1,Length=0.001,Units=km,switch=T !numEQ 143370
new line.CTR148993 bus1=BMT125117444.3,bus2=BMT125124444.3,Phases=1,LineCode=tieSwitch1,Length=0.001,Units=km,switch=T !numEQ 144813
new line.CTR149140 bus1=BMT125135812.1.2.3,bus2=BMT125135819.1.2.3,Phases=3,LineCode=tieSwitch,Length=0.001,Units=km,switch=T !numEQ 143449
new line.CTR149238 bus1=BMT125138297.1.2.3,bus2=BMT125138304.1.2.3,Phases=3,LineCode=tieSwitch,Length=0.001,Units=km,switch=T !numEQ 144464
new line.CTR149350 bus1=BMT125117234.1.2.3,bus2=BMT167772132.1.2.3,Phases=3,LineCode=tieSwitch,Length=0.001,Units=km,switch=T !numEQ 26229
new line.CTR149357 bus1=BMT125117283.1,bus2=BMT125127202.1,Phases=1,LineCode=tieSwitch1,Length=0.001,Units=km,switch=T !numEQ 95763
new line.CTR149364 bus1=BMT125117325.1.2.3,bus2=BMT163562801.1.2.3,Phases=3,LineCode=tieSwitch,Length=0.001,Units=km,switch=T !numEQ 27425
new line.CTR149371 bus1=BMT163817668.1.2.3,bus2=BMT163818039.1.2.3,Phases=3,LineCode=tieSwitch,Length=0.001,Units=km,switch=T !numEQ 26297
new line.CTR149378 bus1=BMT125124899.1.2.3,bus2=BMT125124913.1.2.3,Phases=3,LineCode=tieSwitch,Length=0.001,Units=km,switch=T !numEQ 27414
new line.CTR149392 bus1=BMT125117507.2,bus2=BMT125123989.2,Phases=1,LineCode=tieSwitch1,Length=0.001,Units=km,switch=T !numEQ 26236
new line.CTR149399 bus1=BMT125117640.1.2.3,bus2=BMT154384085.1.2.3,Phases=3,LineCode=tieSwitch,Length=0.001,Units=km,switch=T !numEQ 27437
new line.CTR149413 bus1=BMT125117689.1,bus2=BMT125123345.1,Phases=1,LineCode=tieSwitch1,Length=0.001,Units=km,switch=T !numEQ 27432
new line.CTR149420 bus1=BMT125117948.1,bus2=BMT169225712.1,Phases=1,LineCode=tieSwitch1,Length=0.001,Units=km,switch=T !numEQ 27538
new line.CTR149427 bus1=BMT125117857.3,bus2=BMT125122547.3,Phases=1,LineCode=tieSwitch1,Length=0.001,Units=km,switch=T !numEQ 27375
new line.CTR149434 bus1=BMT125117927.2,bus2=BMT125122428.2,Phases=1,LineCode=tieSwitch1,Length=0.001,Units=km,switch=T !numEQ 27442
new line.CTR149441 bus1=BMT125117934.1,bus2=BMT125122365.1,Phases=1,LineCode=tieSwitch1,Length=0.001,Units=km,switch=T !numEQ 27435
new line.CTR149448 bus1=BMT125122078.1,bus2=BMT169225722.1,Phases=1,LineCode=tieSwitch1,Length=0.001,Units=km,switch=T !numEQ 99775
new line.CTR149455 bus1=BMT125122113.1,bus2=BMT169225725.1,Phases=1,LineCode=tieSwitch1,Length=0.001,Units=km,switch=T !numEQ 97796
new line.CTR149476 bus1=BMT125120972.3,bus2=BMT154998888.3,Phases=1,LineCode=tieSwitch1,Length=0.001,Units=km,switch=T !numEQ 99779
new line.CTR149749 bus1=BMT125137625.1,bus2=BMT125137639.1,Phases=1,LineCode=tieSwitch1,Length=0.001,Units=km,switch=T !numEQ 143345
new line.CTR149756 bus1=BMT125136757.1,bus2=BMT125137695.1,Phases=1,LineCode=tieSwitch1,Length=0.001,Units=km,switch=T !numEQ 97321
new line.CTR149763 bus1=BMT170498781.1.2.3,bus2=BMT173218370.1.2.3,Phases=3,LineCode=tieSwitch,Length=0.001,Units=km,switch=T !numEQ 319678
new line.CTR149777 bus1=BMT125136589.1,bus2=BMT125136687.1,Phases=1,LineCode=tieSwitch1,Length=0.001,Units=km,switch=T !numEQ 97322
new line.CTR149784 bus1=BMT125128973.3,bus2=BMT125136372.3,Phases=1,LineCode=tieSwitch1,Length=0.001,Units=km,switch=T !numEQ 97311
new line.CTR149791 bus1=BMT125135994.3,bus2=BMT125136225.3,Phases=1,LineCode=tieSwitch1,Length=0.001,Units=km,switch=T !numEQ 97722
new line.CTR149798 bus1=BMT125129015.1.2.3,bus2=BMT125135805.1.2.3,Phases=3,LineCode=tieSwitch,Length=0.001,Units=km,switch=T !numEQ 97286
new line.CTR149812 bus1=BMT125129106.1.2.3,bus2=BMT156004259.1.2.3,Phases=3,LineCode=tieSwitch,Length=0.001,Units=km,switch=T !numEQ 97390
new line.CTR149826 bus1=BMT125129911.2,bus2=BMT125129939.2,Phases=1,LineCode=tieSwitch1,Length=0.001,Units=km,switch=T !numEQ 136244
new line.CTR149854 bus1=BMT125134244.1,bus2=BMT125134909.1,Phases=1,LineCode=tieSwitch1,Length=0.001,Units=km,switch=T !numEQ 97313
new line.CTR149861 bus1=BMT125135203.1,bus2=BMT125135210.1,Phases=1,LineCode=tieSwitch1,Length=0.001,Units=km,switch=T !numEQ 27347
new line.CTR149868 bus1=BMT125137877.1,bus2=BMT125137891.1,Phases=1,LineCode=tieSwitch1,Length=0.001,Units=km,switch=T !numEQ 122577
new line.CTR149889 bus1=BMT125130527.3,bus2=BMT125130555.3,Phases=1,LineCode=tieSwitch1,Length=0.001,Units=km,switch=T !numEQ 97370
new line.CTR149896 bus1=BMT125130534.3,bus2=BMT125130541.3,Phases=1,LineCode=tieSwitch1,Length=0.001,Units=km,switch=T !numEQ 97377
new line.CTR116212 bus1=BMT125132746.1.2.3,bus2=BMT125135574.1.2.3,Phases=3,LineCode=tieSwitch,Length=0.001,Units=km,switch=T !numEQ 97721
new line.CTR116226 bus1=BMT125129435.1.2.3,bus2=BMT169296136.1.2.3,Phases=3,LineCode=tieSwitch,Length=0.001,Units=km,switch=T !numEQ 27075
new line.CTR116233 bus1=BMT125130758.1,bus2=BMT149491431.1,Phases=1,LineCode=tieSwitch1,Length=0.001,Units=km,switch=T !numEQ 97718
new line.CTR116240 bus1=BMT125129694.2,bus2=BMT166356855.2,Phases=1,LineCode=tieSwitch1,Length=0.001,Units=km,switch=T !numEQ 97350
new line.CTR116247 bus1=BMT152695281.1.2.3,bus2=BMT159841529.1.2.3,Phases=3,LineCode=tieSwitch,Length=0.001,Units=km,switch=T !numEQ 27468
new line.CTR116296 bus1=BMT125131164.3,bus2=BMT172797192.3,Phases=1,LineCode=tieSwitch1,Length=0.001,Units=km,switch=T !numEQ 27317
new line.CTR116303 bus1=BMT125131192.2,bus2=BMT147716216.2,Phases=1,LineCode=tieSwitch1,Length=0.001,Units=km,switch=T !numEQ 26672
new line.CTR116310 bus1=BMT125131248.2,bus2=BMT159663647.2,Phases=1,LineCode=tieSwitch1,Length=0.001,Units=km,switch=T !numEQ 26439
new line.CTR116324 bus1=BMT125131752.2,bus2=BMT153457292.2,Phases=1,LineCode=tieSwitch1,Length=0.001,Units=km,switch=T !numEQ 97382
new line.CTR116331 bus1=BMT125131430.2,bus2=BMT147716986.2,Phases=1,LineCode=tieSwitch1,Length=0.001,Units=km,switch=T !numEQ 97723
new line.CTR116338 bus1=BMT125128189.1.2.3,bus2=BMT125128203.1.2.3,Phases=3,LineCode=tieSwitch,Length=0.001,Units=km,switch=T !numEQ 97260
new line.CTR131612 bus1=BMT125131556.2,bus2=BMT169766735.2,Phases=1,LineCode=tieSwitch1,Length=0.001,Units=km,switch=T !numEQ 153321
new line.CTR131619 bus1=BMT125136141.3,bus2=BMT125136155.3,Phases=1,LineCode=tieSwitch1,Length=0.001,Units=km,switch=T !numEQ 153713
new line.CTR132683 bus1=BMT125138283.1,bus2=BMT125138339.1,Phases=1,LineCode=tieSwitch1,Length=0.001,Units=km,switch=T !numEQ 195402
new line.CTR14642 bus1=BMT125125361.1,bus2=BMT169225886.1,Phases=1,LineCode=tieSwitch1,Length=0.001,Units=km,switch=T !numEQ 140915
new line.CTR146606 bus1=BMT125130107.2,bus2=BMT125130135.2,Phases=1,LineCode=tieSwitch1,Length=0.001,Units=km,switch=T !numEQ 151780
new line.CTR147054 bus1=BMT125127923.1.2.3,bus2=BMT125140922.1.2.3,Phases=3,LineCode=tieSwitch,Length=0.001,Units=km,switch=T !numEQ 131438
new line.CTR147320 bus1=BMT125126663.2,bus2=BMT125126733.2,Phases=1,LineCode=tieSwitch1,Length=0.001,Units=km,switch=T !numEQ 147368
new line.CTR147334 bus1=BMT125117178.2,bus2=BMT163888609.2,Phases=1,LineCode=tieSwitch1,Length=0.001,Units=km,switch=T !numEQ 27412
new line.CTR14775 bus1=BMT125124283.1,bus2=BMT125124297.1,Phases=1,LineCode=tieSwitch1,Length=0.001,Units=km,switch=T !numEQ 151817
new line.CTR161026 bus1=BMT125126551.2,bus2=BMT169896644.2,Phases=1,LineCode=tieSwitch1,Length=0.001,Units=km,switch=T !numEQ 151909
new line.CTR161320 bus1=BMT125129302.2,bus2=BMT165714249.2,Phases=1,LineCode=tieSwitch1,Length=0.001,Units=km,switch=T !numEQ 154042
new line.CTR161327 bus1=BMT125131360.2,bus2=BMT147717028.2,Phases=1,LineCode=tieSwitch1,Length=0.001,Units=km,switch=T !numEQ 153813
new line.CTR161341 bus1=BMT125135413.2,bus2=BMT159239796.2,Phases=1,LineCode=tieSwitch1,Length=0.001,Units=km,switch=T !numEQ 140883
new line.CTR161362 bus1=BMT148802142.3,bus2=BMT148821052.3,Phases=1,LineCode=tieSwitch1,Length=0.001,Units=km,switch=T !numEQ 153814
new line.CTR161579 bus1=BMT125137121.1,bus2=BMT125137401.1,Phases=1,LineCode=tieSwitch1,Length=0.001,Units=km,switch=T !numEQ 146383
new line.CTR161628 bus1=BMT125137961.3,bus2=BMT171485364.3,Phases=1,LineCode=tieSwitch1,Length=0.001,Units=km,switch=T !numEQ 154043
new line.CTR161642 bus1=BMT125132242.2,bus2=BMT147717266.2,Phases=1,LineCode=tieSwitch1,Length=0.001,Units=km,switch=T !numEQ 154044
new line.CTR161971 bus1=BMT125132333.2,bus2=BMT147717224.2,Phases=1,LineCode=tieSwitch1,Length=0.001,Units=km,switch=T !numEQ 154828
new line.CTR162167 bus1=BMT125122841.3,bus2=BMT165947861.3,Phases=1,LineCode=tieSwitch1,Length=0.001,Units=km,switch=T !numEQ 151953
new line.CTR162307 bus1=BMT146338196.1.2.3,bus2=BMT146338217.1.2.3,Phases=3,LineCode=tieSwitch,Length=0.001,Units=km,switch=T !numEQ 154820
new line.CTR176055 bus1=BMT125138395.1,bus2=BMT135558700.1,Phases=1,LineCode=tieSwitch1,Length=0.001,Units=km,switch=T !numEQ 141000
new line.CTR176279 bus1=BMT125125788.1,bus2=BMT125125802.1,Phases=1,LineCode=tieSwitch1,Length=0.001,Units=km,switch=T !numEQ 147611
new line.CTR176405 bus1=BMT125119467.2,bus2=BMT162966198.2,Phases=1,LineCode=tieSwitch1,Length=0.001,Units=km,switch=T !numEQ 153323
new line.CTR176433 bus1=BMT125119159.1,bus2=BMT125119187.1,Phases=1,LineCode=tieSwitch1,Length=0.001,Units=km,switch=T !numEQ 153172
new line.CTR176531 bus1=BMT125133971.1,bus2=BMT125133985.1,Phases=1,LineCode=tieSwitch1,Length=0.001,Units=km,switch=T !numEQ 151783
new line.CTR176538 bus1=BMT125136064.3,bus2=BMT125136211.3,Phases=1,LineCode=tieSwitch1,Length=0.001,Units=km,switch=T !numEQ 151784
new line.CTR176545 bus1=BMT153745222.1,bus2=BMT153745224.1,Phases=1,LineCode=tieSwitch1,Length=0.001,Units=km,switch=T !numEQ 151786
new line.CTR176699 bus1=BMT125122876.3,bus2=BMT165947874.3,Phases=1,LineCode=tieSwitch1,Length=0.001,Units=km,switch=T !numEQ 152187
new line.CTR176706 bus1=BMT125122981.3,bus2=BMT165947888.3,Phases=1,LineCode=tieSwitch1,Length=0.001,Units=km,switch=T !numEQ 152188
new line.CTR177231 bus1=BMT125127048.2,bus2=BMT125127069.2,Phases=1,LineCode=tieSwitch1,Length=0.001,Units=km,switch=T !numEQ 140776
new line.CTR177476 bus1=BMT125124934.1.2.3,bus2=BMT125104452.1.2.3,Phases=3,LineCode=tieSwitch,Length=0.001,Units=km,switch=T !numEQ 154641
open line.CTR177476 term=1
new line.CTR177567 bus1=BMT125122204.1,bus2=BMT169225735.1,Phases=1,LineCode=tieSwitch1,Length=0.001,Units=km,switch=T !numEQ 152374
new line.CTR177616 bus1=BMT125136617.1,bus2=BMT125138227.1,Phases=1,LineCode=tieSwitch1,Length=0.001,Units=km,switch=T !numEQ 151745
new line.CTR177637 bus1=BMT125126054.2,bus2=BMT125126089.2,Phases=1,LineCode=tieSwitch1,Length=0.001,Units=km,switch=T !numEQ 151918
new line.CTR177742 bus1=BMT125117661.3,bus2=BMT125123450.3,Phases=1,LineCode=tieSwitch1,Length=0.001,Units=km,switch=T !numEQ 143451
new line.CTR191973 bus1=BMT136045949.2,bus2=BMT153916449.2,Phases=1,LineCode=tieSwitch1,Length=0.001,Units=km,switch=T !numEQ 224661
new line.CTR20769 bus1=BMT160795125.1,bus2=BMT160795127.1,Phases=1,LineCode=tieSwitch1,Length=0.001,Units=km,switch=T !numEQ 74292
new line.CTR356089 bus1=BMT125131437.2,bus2=BMT147716958.2,Phases=1,LineCode=tieSwitch1,Length=0.001,Units=km,switch=T !numEQ 224697
new line.CTR108771 bus1=BMT125131017.1,bus2=BMT125131087.1,Phases=1,LineCode=tieSwitch1,Length=0.001,Units=km,switch=T !numEQ 142904
new line.CTR120293 bus1=BMT125125207.1,bus2=BMT169225863.1,Phases=1,LineCode=tieSwitch1,Length=0.001,Units=km,switch=T !numEQ 100861
new line.CTR120405 bus1=BMT125117773.2,bus2=BMT125122771.2,Phases=1,LineCode=tieSwitch1,Length=0.001,Units=km,switch=T !numEQ 143952
new line.CTR121161 bus1=BMT125128350.3,bus2=BMT125140005.3,Phases=1,LineCode=tieSwitch1,Length=0.001,Units=km,switch=T !numEQ 140911
new line.CTR135140 bus1=BMT125117696.1.2.3,bus2=BMT137662739.1.2.3,Phases=3,LineCode=tieSwitch,Length=0.001,Units=km,switch=T !numEQ 27694
new line.CTR136008 bus1=BMT125124640.2,bus2=BMT160328250.2,Phases=1,LineCode=tieSwitch1,Length=0.001,Units=km,switch=T !numEQ 143452
new line.CTR136232 bus1=BMT125138374.3,bus2=BMT125138787.3,Phases=1,LineCode=tieSwitch1,Length=0.001,Units=km,switch=T !numEQ 122576
new line.CTR136309 bus1=BMT125124122.1,bus2=BMT125124416.1,Phases=1,LineCode=tieSwitch1,Length=0.001,Units=km,switch=T !numEQ 152046
new line.CTR136596 bus1=BMT125138437.3,bus2=BMT167287389.3,Phases=1,LineCode=tieSwitch1,Length=0.001,Units=km,switch=T !numEQ 139841
new line.CTR149917 bus1=BMT125129603.1,bus2=BMT160904871.1,Phases=1,LineCode=tieSwitch1,Length=0.001,Units=km,switch=T !numEQ 27135
new line.CTR149931 bus1=BMT125117976.1.2.3,bus2=BMT158906785.1.2.3,Phases=3,LineCode=tieSwitch,Length=0.001,Units=km,switch=T !numEQ 27423
new line.CTR149959 bus1=BMT125131297.2,bus2=BMT166614208.2,Phases=1,LineCode=tieSwitch1,Length=0.001,Units=km,switch=T !numEQ 26607
new line.CTR149966 bus1=BMT125131367.2,bus2=BMT153060310.2,Phases=1,LineCode=tieSwitch1,Length=0.001,Units=km,switch=T !numEQ 97283
new line.CTR149973 bus1=BMT125131402.2,bus2=BMT147716944.2,Phases=1,LineCode=tieSwitch1,Length=0.001,Units=km,switch=T !numEQ 97315
new line.CTR150071 bus1=BMT125131640.2,bus2=BMT147716727.2,Phases=1,LineCode=tieSwitch1,Length=0.001,Units=km,switch=T !numEQ 99778
new line.CTR150099 bus1=BMT125117878.1,bus2=BMT125122484.1,Phases=1,LineCode=tieSwitch1,Length=0.001,Units=km,switch=T !numEQ 27023
new line.CTR150176 bus1=BMT125130968.1,bus2=BMT125130982.1,Phases=1,LineCode=tieSwitch1,Length=0.001,Units=km,switch=T !numEQ 151781
new line.CTR150204 bus1=BMT125131325.2,bus2=BMT148912457.2,Phases=1,LineCode=tieSwitch1,Length=0.001,Units=km,switch=T !numEQ 97331
new line.CTR150267 bus1=BMT170177306.1.2.3,bus2=BMT170251976.1.2.3,Phases=3,LineCode=tieSwitch,Length=0.001,Units=km,switch=T !numEQ 26751
open line.CTR150267 term=1
new line.CTR15027 bus1=BMT125125165.1.2.3,bus2=BMT152729025.1.2.3,Phases=3,LineCode=tieSwitch,Length=0.001,Units=km,switch=T !numEQ 136861
new line.CTR150400 bus1=BMT125118172.1.2.3,bus2=BMT125118179.1.2.3,Phases=3,LineCode=tieSwitch,Length=0.001,Units=km,switch=T !numEQ 143947
new line.CTR150659 bus1=BMT125137933.3,bus2=BMT172168324.3,Phases=1,LineCode=tieSwitch1,Length=0.001,Units=km,switch=T !numEQ 26675
new line.CTR150841 bus1=BMT125138661.1,bus2=BMT125138675.1,Phases=1,LineCode=tieSwitch1,Length=0.001,Units=km,switch=T !numEQ 201683
new line.CTR15090 bus1=BMT125136778.1,bus2=BMT125137681.1,Phases=1,LineCode=tieSwitch1,Length=0.001,Units=km,switch=T !numEQ 127173
new line.CTR151247 bus1=BMT125123849.3,bus2=BMT125123856.3,Phases=1,LineCode=tieSwitch1,Length=0.001,Units=km,switch=T !numEQ 152284
new line.CTR151492 bus1=BMT125117955.1.2.3,bus2=BMT154998680.1.2.3,Phases=3,LineCode=tieSwitch,Length=0.001,Units=km,switch=T !numEQ 27444
new line.CTR151527 bus1=BMT125129484.1.2.3,bus2=BMT157546932.1.2.3,Phases=3,LineCode=tieSwitch,Length=0.001,Units=km,switch=T !numEQ 27170
new line.CTR151604 bus1=BMT125118438.1,bus2=BMT125118725.1,Phases=1,LineCode=tieSwitch1,Length=0.001,Units=km,switch=T !numEQ 142918
new line.CTR163798 bus1=BMT125128875.1.2.3,bus2=BMT170895952.1.2.3,Phases=3,LineCode=tieSwitch,Length=0.001,Units=km,switch=T !numEQ 27567
new line.CTR178232 bus1=BMT125117528.1,bus2=BMT125123961.1,Phases=1,LineCode=tieSwitch1,Length=0.001,Units=km,switch=T !numEQ 151815
new line.CTR178610 bus1=BMT151174264.1.2.3,bus2=BMT146681140.1.2.3,Phases=3,LineCode=tieSwitch,Length=0.001,Units=km,switch=T !numEQ 126585
new line.CTR178673 bus1=BMT125127916.1,bus2=BMT173045939.1,Phases=1,LineCode=tieSwitch1,Length=0.001,Units=km,switch=T !numEQ 152207
new line.CTR178890 bus1=BMT125129624.1,bus2=BMT125129631.1,Phases=1,LineCode=tieSwitch1,Length=0.001,Units=km,switch=T !numEQ 153103
new line.CTR178925 bus1=BMT125120839.3,bus2=BMT168850584.3,Phases=1,LineCode=tieSwitch1,Length=0.001,Units=km,switch=T !numEQ 152977
new line.CTR178974 bus1=BMT125133369.2,bus2=BMT125133411.2,Phases=1,LineCode=tieSwitch1,Length=0.001,Units=km,switch=T !numEQ 153165
new line.CTR178981 bus1=BMT125123541.2,bus2=BMT125123555.2,Phases=1,LineCode=tieSwitch1,Length=0.001,Units=km,switch=T !numEQ 151954
new line.CTR179261 bus1=BMT125128378.2,bus2=BMT125139991.2,Phases=1,LineCode=tieSwitch1,Length=0.001,Units=km,switch=T !numEQ 140771
new line.CTR179618 bus1=BMT125133313.2,bus2=BMT125133446.2,Phases=1,LineCode=tieSwitch1,Length=0.001,Units=km,switch=T !numEQ 193602
new line.CTR194087298 bus1=BMT2389066535.1.2.3,bus2=BMT2194085083.1.2.3,Phases=3,LineCode=tieSwitch,Length=0.001,Units=km,switch=T !numEQ 
new line.CTR194087310 bus1=BMT2194087311.1.2.3,bus2=BMT2389066535.1.2.3,Phases=3,LineCode=tieSwitch,Length=0.001,Units=km,switch=T !numEQ 
new line.CTR194087449 bus1=BMT2194087450.1.2.3,bus2=BMT2194087311.1.2.3,Phases=3,LineCode=tieSwitch,Length=0.001,Units=km,switch=T !numEQ 
new line.CTR2448 bus1=BMT125122827.3,bus2=BMT165947913.3,Phases=1,LineCode=tieSwitch1,Length=0.001,Units=km,switch=T !numEQ 143953
new line.CTR2616 bus1=BMT125140194.3,bus2=BMT125140236.3,Phases=1,LineCode=tieSwitch1,Length=0.001,Units=km,switch=T !numEQ 99979
new line.CTR26290 bus1=BMT125123471.2,bus2=BMT125123695.2,Phases=1,LineCode=tieSwitch1,Length=0.001,Units=km,switch=T !numEQ 143468
new line.CTR27914 bus1=BMT160608693.2,bus2=BMT161015484.2,Phases=1,LineCode=tieSwitch1,Length=0.001,Units=km,switch=T !numEQ 26643
new line.CTR3127 bus1=BMT125117472.1,bus2=BMT173155916.1,Phases=1,LineCode=tieSwitch1,Length=0.001,Units=km,switch=T !numEQ 27413
new line.CTR3134 bus1=BMT125140614.1.2.3,bus2=BMT125140635.1.2.3,Phases=3,LineCode=tieSwitch,Length=0.001,Units=km,switch=T !numEQ 144276
new line.CTR366351 bus1=BMT125140390.3,bus2=BMT125140404.3,Phases=1,LineCode=tieSwitch1,Length=0.001,Units=km,switch=T !numEQ 232234
new line.CTR392930 bus1=BMT127275936.2,bus2=BMT136898493.2,Phases=1,LineCode=tieSwitch1,Length=0.001,Units=km,switch=T !numEQ 295091
new line.CTR394015 bus1=BMT127668902.1.2.3,bus2=BMT152564471.1.2.3,Phases=3,LineCode=tieSwitch,Length=0.001,Units=km,switch=T !numEQ 295026
new line.CTR111501 bus1=BMT125124941.1.2.3,bus2=BMT160818299.1.2.3,Phases=3,LineCode=tieSwitch,Length=0.001,Units=km,switch=T !numEQ 155361
new line.CTR125165 bus1=BMT125118830.1.2.3,bus2=BMT169830286.1.2.3,Phases=3,LineCode=tieSwitch,Length=0.001,Units=km,switch=T !numEQ 101434
new line.CTR125529 bus1=BMT125132270.2,bus2=BMT147717238.2,Phases=1,LineCode=tieSwitch1,Length=0.001,Units=km,switch=T !numEQ 97387
new line.CTR138892 bus1=BMT125120755.3,bus2=BMT154998871.3,Phases=1,LineCode=tieSwitch1,Length=0.001,Units=km,switch=T !numEQ 199894
new line.CTR1391 bus1=BMT125127699.2,bus2=BMT125127713.2,Phases=1,LineCode=tieSwitch1,Length=0.001,Units=km,switch=T !numEQ 101426
new line.CTR13956 bus1=BMT125125991.2,bus2=BMT125126516.2,Phases=1,LineCode=tieSwitch1,Length=0.001,Units=km,switch=T !numEQ 146386
new line.CTR13977 bus1=BMT125128994.3,bus2=BMT155675489.3,Phases=1,LineCode=tieSwitch1,Length=0.001,Units=km,switch=T !numEQ 151931
new line.CTR13984 bus1=BMT125125354.1,bus2=BMT169225892.1,Phases=1,LineCode=tieSwitch1,Length=0.001,Units=km,switch=T !numEQ 151916
new line.CTR154404 bus1=BMT125128063.3,bus2=BMT125140733.3,Phases=1,LineCode=tieSwitch1,Length=0.001,Units=km,switch=T !numEQ 152814
new line.CTR154460 bus1=BMT125117381.1,bus2=BMT125124668.1,Phases=1,LineCode=tieSwitch1,Length=0.001,Units=km,switch=T !numEQ 135842
new line.CTR154642 bus1=BMT125130282.3,bus2=BMT125130359.3,Phases=1,LineCode=tieSwitch1,Length=0.001,Units=km,switch=T !numEQ 97702
new line.CTR154656 bus1=BMT125130303.2,bus2=BMT125130345.2,Phases=1,LineCode=tieSwitch1,Length=0.001,Units=km,switch=T !numEQ 26642
new line.CTR154663 bus1=BMT125129092.3,bus2=BMT125135791.3,Phases=1,LineCode=tieSwitch1,Length=0.001,Units=km,switch=T !numEQ 97386
new line.CTR155006 bus1=BMT125120300.3,bus2=BMT154998708.3,Phases=1,LineCode=tieSwitch1,Length=0.001,Units=km,switch=T !numEQ 27457
new line.CTR155419 bus1=BMT125117801.1.2.3,bus2=BMT125117808.1.2.3,Phases=3,LineCode=tieSwitch,Length=0.001,Units=km,switch=T !numEQ 154490
new line.CTR168726 bus1=BMT125118795.2,bus2=BMT160750092.2,Phases=1,LineCode=tieSwitch1,Length=0.001,Units=km,switch=T !numEQ 101437
new line.CTR169251 bus1=BMT125130058.2,bus2=BMT139355164.2,Phases=1,LineCode=tieSwitch1,Length=0.001,Units=km,switch=T !numEQ 143359
new line.CTR169405 bus1=BMT125118025.1.2.3,bus2=BMT125118312.1.2.3,Phases=3,LineCode=tieSwitch,Length=0.001,Units=km,switch=T !numEQ 143371
new line.CTR169412 bus1=BMT125118137.1.2.3,bus2=BMT125118277.1.2.3,Phases=3,LineCode=tieSwitch,Length=0.001,Units=km,switch=T !numEQ 143372
new line.CTR169419 bus1=BMT125119929.1,bus2=BMT165948285.1,Phases=1,LineCode=tieSwitch1,Length=0.001,Units=km,switch=T !numEQ 97788
new line.CTR170105 bus1=BMT125127951.1.2.3,bus2=BMT152605072.1.2.3,Phases=3,LineCode=tieSwitch,Length=0.001,Units=km,switch=T !numEQ 151979
new line.CTR183643 bus1=BMT125139004.2,bus2=BMT173108148.2,Phases=1,LineCode=tieSwitch1,Length=0.001,Units=km,switch=T !numEQ 196536
new line.CTR183671 bus1=BMT125118865.1.2.3,bus2=BMT125119432.1.2.3,Phases=3,LineCode=tieSwitch,Length=0.001,Units=km,switch=T !numEQ 155154
new line.CTR183678 bus1=BMT125118879.1.2.3,bus2=BMT168490705.1.2.3,Phases=3,LineCode=tieSwitch,Length=0.001,Units=km,switch=T !numEQ 155153
new line.CTR183685 bus1=BMT168489019.1.2.3,bus2=BMT169923760.1.2.3,Phases=3,LineCode=tieSwitch,Length=0.001,Units=km,switch=T !numEQ 155151
open line.CTR183685 term=1
new line.CTR183692 bus1=BMT125118984.1,bus2=BMT158083230.1,Phases=1,LineCode=tieSwitch1,Length=0.001,Units=km,switch=T !numEQ 155150
new line.CTR183699 bus1=BMT125118977.1,bus2=BMT125119229.1,Phases=1,LineCode=tieSwitch1,Length=0.001,Units=km,switch=T !numEQ 155152
new line.CTR183902 bus1=BMT125140103.3,bus2=BMT155332687.3,Phases=1,LineCode=tieSwitch1,Length=0.001,Units=km,switch=T !numEQ 201501
new line.CTR183909 bus1=BMT125140166.3,bus2=BMT125140355.3,Phases=1,LineCode=tieSwitch1,Length=0.001,Units=km,switch=T !numEQ 201502
new line.CTR183986 bus1=BMT125137499.1,bus2=BMT160332013.1,Phases=1,LineCode=tieSwitch1,Length=0.001,Units=km,switch=T !numEQ 196540
new line.CTR184210 bus1=BMT125139123.2,bus2=BMT125139137.2,Phases=1,LineCode=tieSwitch1,Length=0.001,Units=km,switch=T !numEQ 195403
new line.CTR184371 bus1=BMT172070860.1.2.3,bus2=BMT125129211.1.2.3,Phases=3,LineCode=tieSwitch,Length=0.001,Units=km,switch=T !numEQ 196468
open line.CTR184371 term=1
new line.CTR185162 bus1=BMT125136820.1,bus2=BMT125136841.1,Phases=1,LineCode=tieSwitch1,Length=0.001,Units=km,switch=T !numEQ 201529
new line.CTR185246 bus1=BMT125136134.3,bus2=BMT125136169.3,Phases=1,LineCode=tieSwitch1,Length=0.001,Units=km,switch=T !numEQ 201648
new line.CTR185253 bus1=BMT125136085.3,bus2=BMT125136183.3,Phases=1,LineCode=tieSwitch1,Length=0.001,Units=km,switch=T !numEQ 201680
new line.CTR23490 bus1=BMT125118291.1.2.3,bus2=BMT125118298.1.2.3,Phases=3,LineCode=tieSwitch,Length=0.001,Units=km,switch=T !numEQ 144447
new line.CTR2567 bus1=BMT125128623.1,bus2=BMT125139928.1,Phases=1,LineCode=tieSwitch1,Length=0.001,Units=km,switch=T !numEQ 99843
new line.CTR25793 bus1=BMT125128700.1.2.3,bus2=BMT125139732.1.2.3,Phases=3,LineCode=tieSwitch,Length=0.001,Units=km,switch=T !numEQ 116318
new line.CTR29769 bus1=BMT125117360.1,bus2=BMT125117577.1,Phases=1,LineCode=tieSwitch1,Length=0.001,Units=km,switch=T !numEQ 108416
new line.CTR3001 bus1=BMT125125060.2,bus2=BMT125125816.2,Phases=1,LineCode=tieSwitch1,Length=0.001,Units=km,switch=T !numEQ 144274
new line.CTR32359 bus1=BMT125131283.2,bus2=BMT147717042.2,Phases=1,LineCode=tieSwitch1,Length=0.001,Units=km,switch=T !numEQ 120270
new line.CTR32387 bus1=BMT125122106.1,bus2=BMT169225729.1,Phases=1,LineCode=tieSwitch1,Length=0.001,Units=km,switch=T !numEQ 117974
new line.CTR360317 bus1=BMT125127454.1,bus2=BMT169386115.1,Phases=1,LineCode=tieSwitch1,Length=0.001,Units=km,switch=T !numEQ 220283
new line.CTR36069 bus1=BMT125123835.3,bus2=BMT125123905.3,Phases=1,LineCode=tieSwitch1,Length=0.001,Units=km,switch=T !numEQ 198841
new line.CTR388149 bus1=BMT125126481.2,bus2=BMT125126502.2,Phases=1,LineCode=tieSwitch1,Length=0.001,Units=km,switch=T !numEQ 224783
new line.CTR391922 bus1=BMT125131549.2,bus2=BMT147716874.2,Phases=1,LineCode=tieSwitch1,Length=0.001,Units=km,switch=T !numEQ 295092
new line.CTR41515 bus1=BMT173119509.1,bus2=BMT125117437.1,Phases=1,LineCode=tieSwitch1,Length=0.001,Units=km,switch=T !numEQ 95767
new line.CTR59862 bus1=BMT125128553.3,bus2=BMT125128574.3,Phases=1,LineCode=tieSwitch1,Length=0.001,Units=km,switch=T !numEQ 135446
new line.CTR5990 bus1=BMT125124206.1,bus2=BMT125124234.1,Phases=1,LineCode=tieSwitch1,Length=0.001,Units=km,switch=T !numEQ 139112
new line.CTR114749 bus1=BMT125127321.1,bus2=BMT153996835.1,Phases=1,LineCode=tieSwitch1,Length=0.001,Units=km,switch=T !numEQ 101427
new line.CTR114756 bus1=BMT125124836.2,bus2=BMT125127013.2,Phases=1,LineCode=tieSwitch1,Length=0.001,Units=km,switch=T !numEQ 116316
new line.CTR114819 bus1=BMT125117220.1,bus2=BMT125127545.1,Phases=1,LineCode=tieSwitch1,Length=0.001,Units=km,switch=T !numEQ 99875
new line.CTR114833 bus1=BMT125127349.2,bus2=BMT169049264.2,Phases=1,LineCode=tieSwitch1,Length=0.001,Units=km,switch=T !numEQ 99879
new line.CTR114847 bus1=BMT163562804.1.2.3,bus2=BMT163953327.1.2.3,Phases=3,LineCode=tieSwitch,Length=0.001,Units=km,switch=T !numEQ 27428
new line.CTR114854 bus1=BMT125117332.1.2.3,bus2=BMT173119499.1.2.3,Phases=3,LineCode=tieSwitch,Length=0.001,Units=km,switch=T !numEQ 27433
new line.CTR114875 bus1=BMT151363369.1.2.3,bus2=BMT165523422.1.2.3,Phases=3,LineCode=tieSwitch,Length=0.001,Units=km,switch=T !numEQ 26019
new line.CTR114889 bus1=BMT125123758.3,bus2=BMT170301166.3,Phases=1,LineCode=tieSwitch1,Length=0.001,Units=km,switch=T !numEQ 99822
new line.CTR114903 bus1=BMT125117850.1,bus2=BMT125122659.1,Phases=1,LineCode=tieSwitch1,Length=0.001,Units=km,switch=T !numEQ 27416
new line.CTR114910 bus1=BMT125118032.1,bus2=BMT165948236.1,Phases=1,LineCode=tieSwitch1,Length=0.001,Units=km,switch=T !numEQ 27450
new line.CTR114917 bus1=BMT125117864.1.2.3,bus2=BMT125117871.1.2.3,Phases=3,LineCode=tieSwitch,Length=0.001,Units=km,switch=T !numEQ 26041
new line.CTR114924 bus1=BMT125118123.1.2.3,bus2=BMT160399606.1.2.3,Phases=3,LineCode=tieSwitch,Length=0.001,Units=km,switch=T !numEQ 99811
new line.CTR114945 bus1=BMT125122092.1,bus2=BMT169225731.1,Phases=1,LineCode=tieSwitch1,Length=0.001,Units=km,switch=T !numEQ 27378
new line.CTR114952 bus1=BMT125117990.3,bus2=BMT154998689.3,Phases=1,LineCode=tieSwitch1,Length=0.001,Units=km,switch=T !numEQ 27417
new line.CTR114966 bus1=BMT125120335.3,bus2=BMT154998788.3,Phases=1,LineCode=tieSwitch1,Length=0.001,Units=km,switch=T !numEQ 97492
new line.CTR114973 bus1=BMT125120482.3,bus2=BMT154998815.3,Phases=1,LineCode=tieSwitch1,Length=0.001,Units=km,switch=T !numEQ 27489
new line.CTR114980 bus1=BMT125120531.3,bus2=BMT154998874.3,Phases=1,LineCode=tieSwitch1,Length=0.001,Units=km,switch=T !numEQ 27652
new line.CTR114987 bus1=BMT125118452.1,bus2=BMT125118466.1,Phases=1,LineCode=tieSwitch1,Length=0.001,Units=km,switch=T !numEQ 97520
new line.CTR115001 bus1=BMT125118011.2,bus2=BMT125120132.2,Phases=1,LineCode=tieSwitch1,Length=0.001,Units=km,switch=T !numEQ 27174
new line.CTR115008 bus1=BMT125118039.2,bus2=BMT125119705.2,Phases=1,LineCode=tieSwitch1,Length=0.001,Units=km,switch=T !numEQ 97783
new line.CTR115015 bus1=BMT125118067.1,bus2=BMT165394581.1,Phases=1,LineCode=tieSwitch1,Length=0.001,Units=km,switch=T !numEQ 27182
new line.CTR115022 bus1=BMT125118074.1.2.3,bus2=BMT169738568.1.2.3,Phases=3,LineCode=tieSwitch,Length=0.001,Units=km,switch=T !numEQ 26036
new line.CTR115029 bus1=BMT125118340.1,bus2=BMT125118396.1,Phases=1,LineCode=tieSwitch1,Length=0.001,Units=km,switch=T !numEQ 27325
new line.CTR115050 bus1=BMT125118529.1,bus2=BMT125118606.1,Phases=1,LineCode=tieSwitch1,Length=0.001,Units=km,switch=T !numEQ 99774
new line.CTR14299 bus1=BMT125117402.2,bus2=BMT125124605.2,Phases=1,LineCode=tieSwitch1,Length=0.001,Units=km,switch=T !numEQ 143465
new line.CTR143386 bus1=BMT125135896.3,bus2=BMT125136239.3,Phases=1,LineCode=tieSwitch1,Length=0.001,Units=km,switch=T !numEQ 140762
new line.CTR15804 bus1=BMT125126068.2,bus2=BMT125126117.2,Phases=1,LineCode=tieSwitch1,Length=0.001,Units=km,switch=T !numEQ 134380
new line.CTR158282 bus1=BMT125139788.3,bus2=BMT125139851.3,Phases=1,LineCode=tieSwitch1,Length=0.001,Units=km,switch=T !numEQ 124345
new line.CTR172541 bus1=BMT125138941.2,bus2=BMT125139088.2,Phases=1,LineCode=tieSwitch1,Length=0.001,Units=km,switch=T !numEQ 146414
new line.CTR172548 bus1=BMT125139473.3,bus2=BMT125139578.3,Phases=1,LineCode=tieSwitch1,Length=0.001,Units=km,switch=T !numEQ 146415
new line.CTR172877 bus1=BMT125131577.2,bus2=BMT160813176.2,Phases=1,LineCode=tieSwitch1,Length=0.001,Units=km,switch=T !numEQ 136326
new line.CTR17288 bus1=BMT125124024.2,bus2=BMT125124052.2,Phases=1,LineCode=tieSwitch1,Length=0.001,Units=km,switch=T !numEQ 126589
new line.CTR172898 bus1=BMT125132571.3,bus2=BMT171836797.3,Phases=1,LineCode=tieSwitch1,Length=0.001,Units=km,switch=T !numEQ 136330
new line.CTR172912 bus1=BMT125135147.1,bus2=BMT125135168.1,Phases=1,LineCode=tieSwitch1,Length=0.001,Units=km,switch=T !numEQ 136332
new line.CTR172919 bus1=BMT125135329.2,bus2=BMT159239834.2,Phases=1,LineCode=tieSwitch1,Length=0.001,Units=km,switch=T !numEQ 136331
new line.CTR172926 bus1=BMT125133173.1,bus2=BMT125135049.1,Phases=1,LineCode=tieSwitch1,Length=0.001,Units=km,switch=T !numEQ 136333
new line.CTR173234 bus1=BMT125127853.1.2.3,bus2=BMT151174259.1.2.3,Phases=3,LineCode=tieSwitch,Length=0.001,Units=km,switch=T !numEQ 155265
new line.CTR174207 bus1=BMT125133082.1.2.3,bus2=BMT171193734.1.2.3,Phases=3,LineCode=tieSwitch,Length=0.001,Units=km,switch=T !numEQ 26608
new line.CTR18800 bus1=BMT125125333.1,bus2=BMT169225884.1,Phases=1,LineCode=tieSwitch1,Length=0.001,Units=km,switch=T !numEQ 131599
new line.CTR188823 bus1=BMT125134671.1,bus2=BMT125134685.1,Phases=1,LineCode=tieSwitch1,Length=0.001,Units=km,switch=T !numEQ 153820
new line.CTR188907 bus1=BMT125124570.1,bus2=BMT169823623.1,Phases=1,LineCode=tieSwitch1,Length=0.001,Units=km,switch=T !numEQ 209687
new line.CTR2525 bus1=BMT125117703.1.2.3,bus2=BMT150249429.1.2.3,Phases=3,LineCode=tieSwitch,Length=0.001,Units=km,switch=T !numEQ 27415
new line.CTR28397 bus1=BMT128667305.1.2.3,bus2=BMT151660533.1.2.3,Phases=3,LineCode=tieSwitch,Length=0.001,Units=km,switch=T !numEQ 155420
new line.CTR3281 bus1=BMT125127510.3,bus2=BMT125127531.3,Phases=1,LineCode=tieSwitch1,Length=0.001,Units=km,switch=T !numEQ 145045
new line.CTR3288 bus1=BMT125127293.1,bus2=BMT125127475.1,Phases=1,LineCode=tieSwitch1,Length=0.001,Units=km,switch=T !numEQ 145046
new line.CTR3295 bus1=BMT125127342.1.2.3,bus2=BMT125127412.1.2.3,Phases=3,LineCode=tieSwitch,Length=0.001,Units=km,switch=T !numEQ 145047
new line.CTR42544 bus1=BMT125123828.3,bus2=BMT125123919.3,Phases=1,LineCode=tieSwitch1,Length=0.001,Units=km,switch=T !numEQ 152641
new line.CTR427230 bus1=BMT137111650.1,bus2=BMT167108213.1,Phases=1,LineCode=tieSwitch1,Length=0.001,Units=km,switch=T !numEQ 302912
new line.CTR6151 bus1=BMT125120657.3,bus2=BMT154998849.3,Phases=1,LineCode=tieSwitch1,Length=0.001,Units=km,switch=T !numEQ 135968
new line.CTR149903 bus1=BMT146712906.1.2.3,bus2=BMT146712913.1.2.3,Phases=3,LineCode=tieSwitch,Length=0.001,Units=km,switch=T !numEQ 97859
new line.CTR149910 bus1=BMT125129540.1.2.3,bus2=BMT169435432.1.2.3,Phases=3,LineCode=tieSwitch,Length=0.001,Units=km,switch=T !numEQ 27470
new line.CTR165856 bus1=BMT125134062.1,bus2=BMT163355514.1,Phases=1,LineCode=tieSwitch1,Length=0.001,Units=km,switch=T !numEQ 151785
new line.CTR166381 bus1=BMT125118494.1,bus2=BMT125118550.1,Phases=1,LineCode=tieSwitch1,Length=0.001,Units=km,switch=T !numEQ 102983
new line.CTR166388 bus1=BMT125128126.3,bus2=BMT125140677.3,Phases=1,LineCode=tieSwitch1,Length=0.001,Units=km,switch=T !numEQ 102984
new line.CTR17974 bus1=BMT125132704.1.2.3,bus2=BMT125135616.1.2.3,Phases=3,LineCode=tieSwitch,Length=0.001,Units=km,switch=T !numEQ 127094
new line.CTR180332 bus1=BMT125122505.1,bus2=BMT159109582.1,Phases=1,LineCode=tieSwitch1,Length=0.001,Units=km,switch=T !numEQ 152605
new line.CTR180885 bus1=BMT125125389.1,bus2=BMT169225890.1,Phases=1,LineCode=tieSwitch1,Length=0.001,Units=km,switch=T !numEQ 151901
new line.CTR18100 bus1=BMT152974935.1.2.3,bus2=BMT159779138.1.2.3,Phases=3,LineCode=tieSwitch,Length=0.001,Units=km,switch=T !numEQ 27728
new line.CTR181144 bus1=BMT125117682.2,bus2=BMT157862827.2,Phases=1,LineCode=tieSwitch1,Length=0.001,Units=km,switch=T !numEQ 152388
new line.CTR181235 bus1=BMT125123408.2,bus2=BMT129439020.2,Phases=1,LineCode=tieSwitch1,Length=0.001,Units=km,switch=T !numEQ 153264
new line.CTR181270 bus1=BMT125128231.3,bus2=BMT125140474.3,Phases=1,LineCode=tieSwitch1,Length=0.001,Units=km,switch=T !numEQ 151907
new line.CTR181319 bus1=BMT125122715.1,bus2=BMT125122743.1,Phases=1,LineCode=tieSwitch1,Length=0.001,Units=km,switch=T !numEQ 152558
new line.CTR181340 bus1=BMT125126222.2,bus2=BMT125126236.2,Phases=1,LineCode=tieSwitch1,Length=0.001,Units=km,switch=T !numEQ 151746
new line.CTR181347 bus1=BMT125126250.2,bus2=BMT125126292.2,Phases=1,LineCode=tieSwitch1,Length=0.001,Units=km,switch=T !numEQ 152986
new line.CTR181424 bus1=BMT125136540.1,bus2=BMT125138248.1,Phases=1,LineCode=tieSwitch1,Length=0.001,Units=km,switch=T !numEQ 140768
new line.CTR20991 bus1=BMT152564473.1.2.3,bus2=BMT2450614.1.2.3,Phases=3,LineCode=tieSwitch,Length=0.001,Units=km,switch=T !numEQ 26795
open line.CTR20991 term=1
new line.CTR21033 bus1=BMT125124920.1.2.3,bus2=BMT165995149.1.2.3,Phases=3,LineCode=tieSwitch,Length=0.001,Units=km,switch=T !numEQ 137911
new line.CTR23266 bus1=BMT125121014.3,bus2=BMT154998884.3,Phases=1,LineCode=tieSwitch1,Length=0.001,Units=km,switch=T !numEQ 153767
new line.CTR23406 bus1=BMT125138542.2,bus2=BMT125138549.2,Phases=1,LineCode=tieSwitch1,Length=0.001,Units=km,switch=T !numEQ 140890
new line.CTR24995 bus1=BMT125118487.1,bus2=BMT125118655.1,Phases=1,LineCode=tieSwitch1,Length=0.001,Units=km,switch=T !numEQ 27391
new line.CTR25002 bus1=BMT125120391.3,bus2=BMT154998890.3,Phases=1,LineCode=tieSwitch1,Length=0.001,Units=km,switch=T !numEQ 153856
new line.CTR25107 bus1=BMT125128777.1.2.3,bus2=BMT164938063.1.2.3,Phases=3,LineCode=tieSwitch,Length=0.001,Units=km,switch=T !numEQ 26381
new line.CTR25114 bus1=BMT125128756.1.2.3,bus2=BMT125139340.1.2.3,Phases=3,LineCode=tieSwitch,Length=0.001,Units=km,switch=T !numEQ 26093
new line.CTR25128 bus1=BMT125128784.1.2.3,bus2=BMT159814871.1.2.3,Phases=3,LineCode=tieSwitch,Length=0.001,Units=km,switch=T !numEQ 26037
new line.CTR25135 bus1=BMT125128798.1.2.3,bus2=BMT125139186.1.2.3,Phases=3,LineCode=tieSwitch,Length=0.001,Units=km,switch=T !numEQ 99884
new line.CTR25142 bus1=BMT125128805.1.2.3,bus2=BMT145920562.1.2.3,Phases=3,LineCode=tieSwitch,Length=0.001,Units=km,switch=T !numEQ 26883
new line.CTR27459 bus1=BMT125124815.3,bus2=BMT160348502.3,Phases=1,LineCode=tieSwitch1,Length=0.001,Units=km,switch=T !numEQ 136314
new line.CTR27578 bus1=BMT125133159.1,bus2=BMT148180830.1,Phases=1,LineCode=tieSwitch1,Length=0.001,Units=km,switch=T !numEQ 155597
new line.CTR3211 bus1=BMT125138458.2,bus2=BMT125138465.2,Phases=1,LineCode=tieSwitch1,Length=0.001,Units=km,switch=T !numEQ 97292
new line.CTR32268 bus1=BMT125130436.1,bus2=BMT125130471.1,Phases=1,LineCode=tieSwitch1,Length=0.001,Units=km,switch=T !numEQ 122581
new line.CTR32275 bus1=BMT125129848.2,bus2=BMT125130016.2,Phases=1,LineCode=tieSwitch1,Length=0.001,Units=km,switch=T !numEQ 122582
new line.CTR32282 bus1=BMT125134139.1,bus2=BMT160795124.1,Phases=1,LineCode=tieSwitch1,Length=0.001,Units=km,switch=T !numEQ 153997
new line.CTR32289 bus1=BMT125134335.1,bus2=BMT125134741.1,Phases=1,LineCode=tieSwitch1,Length=0.001,Units=km,switch=T !numEQ 122584
new line.CTR32296 bus1=BMT125135084.3,bus2=BMT171766217.3,Phases=1,LineCode=tieSwitch1,Length=0.001,Units=km,switch=T !numEQ 122585
new line.CTR32303 bus1=BMT125133166.3,bus2=BMT125135077.3,Phases=1,LineCode=tieSwitch1,Length=0.001,Units=km,switch=T !numEQ 122586
new line.CTR32310 bus1=BMT125133838.1,bus2=BMT162104368.1,Phases=1,LineCode=tieSwitch1,Length=0.001,Units=km,switch=T !numEQ 122587
new line.CTR32317 bus1=BMT125133922.1,bus2=BMT125133964.1,Phases=1,LineCode=tieSwitch1,Length=0.001,Units=km,switch=T !numEQ 122588
new line.CTR32324 bus1=BMT172070859.1.2.3,bus2=BMT125129344.1.2.3,Phases=3,LineCode=tieSwitch,Length=0.001,Units=km,switch=T !numEQ 27407
open line.CTR32324 term=1
new line.CTR346807 bus1=BMT125129470.1,bus2=BMT161374579.1,Phases=1,LineCode=tieSwitch1,Length=0.001,Units=km,switch=T !numEQ 220268
new line.CTR347822 bus1=BMT125125249.1,bus2=BMT169225880.1,Phases=1,LineCode=tieSwitch1,Length=0.001,Units=km,switch=T !numEQ 220285
new line.CTR347829 bus1=BMT125125480.1,bus2=BMT169225882.1,Phases=1,LineCode=tieSwitch1,Length=0.001,Units=km,switch=T !numEQ 222871
new line.CTR350552 bus1=BMT125133509.3,bus2=BMT148821220.3,Phases=1,LineCode=tieSwitch1,Length=0.001,Units=km,switch=T !numEQ 224612
new line.CTR40990 bus1=BMT125131185.1.2.3,bus2=BMT140764516.1.2.3,Phases=3,LineCode=tieSwitch,Length=0.001,Units=km,switch=T !numEQ 155030
new line.CTR43734 bus1=BMT125132599.3,bus2=BMT125132627.3,Phases=1,LineCode=tieSwitch1,Length=0.001,Units=km,switch=T !numEQ 153230
new line.CTR439123 bus1=BMT140498187.1,bus2=BMT140498201.1,Phases=1,LineCode=tieSwitch1,Length=0.001,Units=km,switch=T !numEQ 308486
new line.CTR440159 bus1=BMT140764523.1.2.3,bus2=BMT140764691.1.2.3,Phases=3,LineCode=tieSwitch,Length=0.001,Units=km,switch=T !numEQ 305373
new line.CTR46800 bus1=BMT125126047.2,bus2=BMT125126348.2,Phases=1,LineCode=tieSwitch1,Length=0.001,Units=km,switch=T !numEQ 124736
new line.CTR63467 bus1=BMT125122673.1,bus2=BMT159689940.1,Phases=1,LineCode=tieSwitch1,Length=0.001,Units=km,switch=T !numEQ 108420
new line.CTR12332 bus1=BMT125128280.1.2.3,bus2=BMT125128294.1.2.3,Phases=3,LineCode=tieSwitch,Length=0.001,Units=km,switch=T !numEQ 26035
new line.CTR137590 bus1=BMT125128007.3,bus2=BMT125140810.3,Phases=1,LineCode=tieSwitch1,Length=0.001,Units=km,switch=T !numEQ 100864
new line.CTR137821 bus1=BMT125132305.2,bus2=BMT147717196.2,Phases=1,LineCode=tieSwitch1,Length=0.001,Units=km,switch=T !numEQ 151782
new line.CTR138668 bus1=BMT125132172.2,bus2=BMT168856426.2,Phases=1,LineCode=tieSwitch1,Length=0.001,Units=km,switch=T !numEQ 138849
new line.CTR151926 bus1=BMT125130849.1,bus2=BMT168868032.1,Phases=1,LineCode=tieSwitch1,Length=0.001,Units=km,switch=T !numEQ 97717
new line.CTR153270 bus1=BMT125118165.1,bus2=BMT127944527.1,Phases=1,LineCode=tieSwitch1,Length=0.001,Units=km,switch=T !numEQ 27217
new line.CTR167214 bus1=BMT125135294.1.2.3,bus2=BMT173270973.1.2.3,Phases=3,LineCode=tieSwitch,Length=0.001,Units=km,switch=T !numEQ 97713
new line.CTR167494 bus1=BMT125138388.3,bus2=BMT125138689.3,Phases=1,LineCode=tieSwitch1,Length=0.001,Units=km,switch=T !numEQ 97293
new line.CTR167620 bus1=BMT125119831.1,bus2=BMT165948262.1,Phases=1,LineCode=tieSwitch1,Length=0.001,Units=km,switch=T !numEQ 189892
new line.CTR167900 bus1=BMT125135105.3,bus2=BMT167097885.3,Phases=1,LineCode=tieSwitch1,Length=0.001,Units=km,switch=T !numEQ 153715
new line.CTR168054 bus1=BMT152986267.1.2.3,bus2=BMT152988667.1.2.3,Phases=3,LineCode=tieSwitch,Length=0.001,Units=km,switch=T !numEQ 127178
new line.CTR168201 bus1=BMT125129134.2,bus2=BMT166352457.2,Phases=1,LineCode=tieSwitch1,Length=0.001,Units=km,switch=T !numEQ 153320
new line.CTR168292 bus1=BMT125131899.2,bus2=BMT147716678.2,Phases=1,LineCode=tieSwitch1,Length=0.001,Units=km,switch=T !numEQ 153166
new line.CTR182103 bus1=BMT125123520.2,bus2=BMT169407247.2,Phases=1,LineCode=tieSwitch1,Length=0.001,Units=km,switch=T !numEQ 143470
new line.CTR182712 bus1=BMT152165529.1,bus2=BMT152165532.1,Phases=1,LineCode=tieSwitch1,Length=0.001,Units=km,switch=T !numEQ 155188
new line.CTR182726 bus1=BMT125131255.2,bus2=BMT159681892.2,Phases=1,LineCode=tieSwitch1,Length=0.001,Units=km,switch=T !numEQ 155605
new line.CTR182740 bus1=BMT149248715.1,bus2=BMT165948270.1,Phases=1,LineCode=tieSwitch1,Length=0.001,Units=km,switch=T !numEQ 27342
new line.CTR182971 bus1=BMT125127118.3,bus2=BMT125127139.3,Phases=1,LineCode=tieSwitch1,Length=0.001,Units=km,switch=T !numEQ 146388
new line.CTR183181 bus1=BMT125133138.1,bus2=BMT125135196.1,Phases=1,LineCode=tieSwitch1,Length=0.001,Units=km,switch=T !numEQ 155596
new line.CTR183188 bus1=BMT157380002.1,bus2=BMT159981303.1,Phases=1,LineCode=tieSwitch1,Length=0.001,Units=km,switch=T !numEQ 155598
new line.CTR183356 bus1=BMT152605077.1.2.3,bus2=BMT152605078.1.2.3,Phases=3,LineCode=tieSwitch,Length=0.001,Units=km,switch=T !numEQ 26094
open line.CTR183356 term=1
new line.CTR19633 bus1=BMT125120314.3,bus2=BMT154998918.3,Phases=1,LineCode=tieSwitch1,Length=0.001,Units=km,switch=T !numEQ 141542
new line.CTR22937 bus1=BMT125136092.3,bus2=BMT125136127.3,Phases=1,LineCode=tieSwitch1,Length=0.001,Units=km,switch=T !numEQ 153660
new line.CTR23049 bus1=BMT125134034.1,bus2=BMT125134041.1,Phases=1,LineCode=tieSwitch1,Length=0.001,Units=km,switch=T !numEQ 153716
new line.CTR23091 bus1=BMT125120251.3,bus2=BMT154998933.3,Phases=1,LineCode=tieSwitch1,Length=0.001,Units=km,switch=T !numEQ 153816
new line.CTR24904 bus1=BMT125132690.1.2.3,bus2=BMT161513889.1.2.3,Phases=3,LineCode=tieSwitch,Length=0.001,Units=km,switch=T !numEQ 97402
new line.CTR2903 bus1=BMT125128070.1.2.3,bus2=BMT163080434.1.2.3,Phases=3,LineCode=tieSwitch,Length=0.001,Units=km,switch=T !numEQ 127139
new line.CTR2910 bus1=BMT125128021.1.2.3,bus2=BMT125128028.1.2.3,Phases=3,LineCode=tieSwitch,Length=0.001,Units=km,switch=T !numEQ 26618
new line.CTR31589 bus1=BMT125139809.1.2.3,bus2=BMT125139816.1.2.3,Phases=3,LineCode=tieSwitch,Length=0.001,Units=km,switch=T !numEQ 97794
new line.CTR3183 bus1=BMT125122372.1,bus2=BMT125122407.1,Phases=1,LineCode=tieSwitch1,Length=0.001,Units=km,switch=T !numEQ 144823
new line.CTR34354 bus1=BMT125140243.3,bus2=BMT125140257.3,Phases=1,LineCode=tieSwitch1,Length=0.001,Units=km,switch=T !numEQ 122572
new line.CTR34361 bus1=BMT125139347.1.2.3,bus2=BMT168861573.1.2.3,Phases=3,LineCode=tieSwitch,Length=0.001,Units=km,switch=T !numEQ 122573
new line.CTR34375 bus1=BMT145920618.2,bus2=BMT125138913.2,Phases=1,LineCode=tieSwitch1,Length=0.001,Units=km,switch=T !numEQ 122575
new line.CTR34417 bus1=BMT125133236.2,bus2=BMT159988522.2,Phases=1,LineCode=tieSwitch1,Length=0.001,Units=km,switch=T !numEQ 122580
new line.CTR345274 bus1=BMT125124304.1,bus2=BMT125124353.1,Phases=1,LineCode=tieSwitch1,Length=0.001,Units=km,switch=T !numEQ 224922
new line.CTR345736 bus1=BMT125129883.2,bus2=BMT166404549.2,Phases=1,LineCode=tieSwitch1,Length=0.001,Units=km,switch=T !numEQ 222873
new line.CTR369186 bus1=BMT162170994.1,bus2=BMT166717950.1,Phases=1,LineCode=tieSwitch1,Length=0.001,Units=km,switch=T !numEQ 224533
new line.CTR370299 bus1=BMT125119397.1,bus2=BMT168519300.1,Phases=1,LineCode=tieSwitch1,Length=0.001,Units=km,switch=T !numEQ 230019
new line.CTR434790 bus1=BMT139355185.2,bus2=BMT160370002.2,Phases=1,LineCode=tieSwitch1,Length=0.001,Units=km,switch=T !numEQ 305319
new line.CTR434916 bus1=BMT139389870.3,bus2=BMT160653836.3,Phases=1,LineCode=tieSwitch1,Length=0.001,Units=km,switch=T !numEQ 295014
new line.CTR460214 bus1=BMT145919099.1.2.3,bus2=BMT145919631.1.2.3,Phases=3,LineCode=tieSwitch,Length=0.001,Units=km,switch=T !numEQ 286600
new line.CTR460221 bus1=BMT145920569.1.2.3,bus2=BMT160569193.1.2.3,Phases=3,LineCode=tieSwitch,Length=0.001,Units=km,switch=T !numEQ 286599
new line.CTR46366 bus1=BMT125120041.1,bus2=BMT165948290.1,Phases=1,LineCode=tieSwitch1,Length=0.001,Units=km,switch=T !numEQ 144835
new line.CTR5913 bus1=BMT125133054.1.2.3,bus2=BMT125133061.1.2.3,Phases=3,LineCode=tieSwitch,Length=0.001,Units=km,switch=T !numEQ 153048
new line.CTR70635 bus1=BMT125125277.1,bus2=BMT169225894.1,Phases=1,LineCode=tieSwitch1,Length=0.001,Units=km,switch=T !numEQ 140916
new line.CTR75199 bus1=BMT125128406.2,bus2=BMT125139963.2,Phases=1,LineCode=tieSwitch1,Length=0.001,Units=km,switch=T !numEQ 124341
new line.CTR81422 bus1=BMT125134601.1,bus2=BMT125134664.1,Phases=1,LineCode=tieSwitch1,Length=0.001,Units=km,switch=T !numEQ 136329
new line.CTR846272 bus1=BMT148802538.3,bus2=BMT148821050.3,Phases=1,LineCode=tieSwitch1,Length=0.001,Units=km,switch=T !numEQ 286590
new line.CTR846274 bus1=BMT148803828.3,bus2=BMT148821211.3,Phases=1,LineCode=tieSwitch1,Length=0.001,Units=km,switch=T !numEQ 286576
new line.CTR129512 bus1=BMT125125186.1,bus2=BMT169225861.1,Phases=1,LineCode=tieSwitch1,Length=0.001,Units=km,switch=T !numEQ 100862
new line.CTR129715 bus1=BMT173270987.1.2.3,bus2=BMT173270988.1.2.3,Phases=3,LineCode=tieSwitch,Length=0.001,Units=km,switch=T !numEQ 145032
new line.CTR13004 bus1=BMT169432977.1.2.3,bus2=BMT169432984.1.2.3,Phases=3,LineCode=tieSwitch,Length=0.001,Units=km,switch=T !numEQ 27424
new line.CTR130233 bus1=BMT125126579.2,bus2=BMT125126600.2,Phases=1,LineCode=tieSwitch1,Length=0.001,Units=km,switch=T !numEQ 151951
new line.CTR130261 bus1=BMT125126376.2,bus2=BMT125126390.2,Phases=1,LineCode=tieSwitch1,Length=0.001,Units=km,switch=T !numEQ 131126
new line.CTR130282 bus1=BMT125126397.2,bus2=BMT172057094.2,Phases=1,LineCode=tieSwitch1,Length=0.001,Units=km,switch=T !numEQ 131127
new line.CTR14439 bus1=BMT125140691.3,bus2=BMT125140698.3,Phases=1,LineCode=tieSwitch1,Length=0.001,Units=km,switch=T !numEQ 147589
new line.CTR144590 bus1=BMT125136666.1,bus2=BMT172653146.1,Phases=1,LineCode=tieSwitch1,Length=0.001,Units=km,switch=T !numEQ 27931
new line.CTR145367 bus1=BMT125117654.2,bus2=BMT125123464.2,Phases=1,LineCode=tieSwitch1,Length=0.001,Units=km,switch=T !numEQ 26311
new line.CTR145395 bus1=BMT125136246.3,bus2=BMT152403456.3,Phases=1,LineCode=tieSwitch1,Length=0.001,Units=km,switch=T !numEQ 151887
new line.CTR145955 bus1=BMT125136610.1,bus2=BMT125138129.1,Phases=1,LineCode=tieSwitch1,Length=0.001,Units=km,switch=T !numEQ 122578
new line.CTR159332 bus1=BMT125128707.1.2.3,bus2=BMT125128735.1.2.3,Phases=3,LineCode=tieSwitch,Length=0.001,Units=km,switch=T !numEQ 127177
new line.CTR160123 bus1=BMT125132179.2,bus2=BMT147717077.2,Phases=1,LineCode=tieSwitch1,Length=0.001,Units=km,switch=T !numEQ 119573
new line.CTR174417 bus1=BMT125138864.1.2.3,bus2=BMT125139165.1.2.3,Phases=3,LineCode=tieSwitch,Length=0.001,Units=km,switch=T !numEQ 153222
new line.CTR174725 bus1=BMT125117752.1,bus2=BMT160982865.1,Phases=1,LineCode=tieSwitch1,Length=0.001,Units=km,switch=T !numEQ 152437
new line.CTR174921 bus1=BMT125117794.2,bus2=BMT125122757.2,Phases=1,LineCode=tieSwitch1,Length=0.001,Units=km,switch=T !numEQ 152557
new line.CTR175040 bus1=BMT125122386.1,bus2=BMT125122393.1,Phases=1,LineCode=tieSwitch1,Length=0.001,Units=km,switch=T !numEQ 152508
new line.CTR175054 bus1=BMT125126768.1,bus2=BMT159868858.1,Phases=1,LineCode=tieSwitch1,Length=0.001,Units=km,switch=T !numEQ 146395
new line.CTR175257 bus1=BMT125125970.2,bus2=BMT125126530.2,Phases=1,LineCode=tieSwitch1,Length=0.001,Units=km,switch=T !numEQ 146385
new line.CTR175278 bus1=BMT125139522.2,bus2=BMT125139613.2,Phases=1,LineCode=tieSwitch1,Length=0.001,Units=km,switch=T !numEQ 146374
new line.CTR175285 bus1=BMT125139641.2,bus2=BMT125139704.2,Phases=1,LineCode=tieSwitch1,Length=0.001,Units=km,switch=T !numEQ 146375
new line.CTR175299 bus1=BMT125128833.3,bus2=BMT125138801.3,Phases=1,LineCode=tieSwitch1,Length=0.001,Units=km,switch=T !numEQ 141188
new line.CTR175908 bus1=BMT125138717.3,bus2=BMT125138731.3,Phases=1,LineCode=tieSwitch1,Length=0.001,Units=km,switch=T !numEQ 151896
new line.CTR176048 bus1=BMT125124276.1,bus2=BMT125124374.1,Phases=1,LineCode=tieSwitch1,Length=0.001,Units=km,switch=T !numEQ 151938
new line.CTR189362 bus1=BMT125134503.1,bus2=BMT125134524.1,Phases=1,LineCode=tieSwitch1,Length=0.001,Units=km,switch=T !numEQ 153973
new line.CTR189684 bus1=BMT125137975.3,bus2=BMT152069804.3,Phases=1,LineCode=tieSwitch1,Length=0.001,Units=km,switch=T !numEQ 201386
new line.CTR189733 bus1=BMT125134804.1,bus2=BMT167088884.1,Phases=1,LineCode=tieSwitch1,Length=0.001,Units=km,switch=T !numEQ 153717
new line.CTR189999 bus1=BMT125137156.1,bus2=BMT125137226.1,Phases=1,LineCode=tieSwitch1,Length=0.001,Units=km,switch=T !numEQ 216025
new line.CTR190216 bus1=BMT125140705.3,bus2=BMT125140719.3,Phases=1,LineCode=tieSwitch1,Length=0.001,Units=km,switch=T !numEQ 217161
new line.CTR190734 bus1=BMT168861596.1.2.3,bus2=BMT5857696.1.2.3,Phases=3,LineCode=tieSwitch,Length=0.001,Units=km,switch=T !numEQ 219021
open line.CTR190734 term=1
new line.CTR20564 bus1=BMT125128812.1.2.3,bus2=BMT125138815.1.2.3,Phases=3,LineCode=tieSwitch,Length=0.001,Units=km,switch=T !numEQ 142276
new line.CTR23889 bus1=BMT125121189.3,bus2=BMT154998905.3,Phases=1,LineCode=tieSwitch1,Length=0.001,Units=km,switch=T !numEQ 153791
new line.CTR23931 bus1=BMT125121763.3,bus2=BMT154998773.3,Phases=1,LineCode=tieSwitch1,Length=0.001,Units=km,switch=T !numEQ 153761
new line.CTR23938 bus1=BMT125121833.3,bus2=BMT154998767.3,Phases=1,LineCode=tieSwitch1,Length=0.001,Units=km,switch=T !numEQ 153762
new line.CTR23945 bus1=BMT125121728.3,bus2=BMT168002316.3,Phases=1,LineCode=tieSwitch1,Length=0.001,Units=km,switch=T !numEQ 153726
new line.CTR23973 bus1=BMT125117941.2,bus2=BMT125122351.2,Phases=1,LineCode=tieSwitch1,Length=0.001,Units=km,switch=T !numEQ 152745
new line.CTR351105 bus1=BMT125128644.3,bus2=BMT125139914.3,Phases=1,LineCode=tieSwitch1,Length=0.001,Units=km,switch=T !numEQ 229928
new line.CTR352533 bus1=BMT125130366.3,bus2=BMT160327095.3,Phases=1,LineCode=tieSwitch1,Length=0.001,Units=km,switch=T !numEQ 224921
new line.CTR354976 bus1=BMT125131759.2,bus2=BMT161913423.2,Phases=1,LineCode=tieSwitch1,Length=0.001,Units=km,switch=T !numEQ 224699
new line.CTR39863 bus1=BMT125133502.3,bus2=BMT148821218.3,Phases=1,LineCode=tieSwitch1,Length=0.001,Units=km,switch=T !numEQ 193011
new line.CTR399657 bus1=BMT129439055.2,bus2=BMT129438467.2,Phases=1,LineCode=tieSwitch1,Length=0.001,Units=km,switch=T !numEQ 201840
open line.CTR399657 term=1
new line.CTR400392 bus1=BMT129698293.1,bus2=BMT129796013.1,Phases=1,LineCode=tieSwitch1,Length=0.001,Units=km,switch=T !numEQ 295220
new line.CTR4520 bus1=BMT125124150.1,bus2=BMT125124388.1,Phases=1,LineCode=tieSwitch1,Length=0.001,Units=km,switch=T !numEQ 117977
new line.CTR5794 bus1=BMT125125550.2,bus2=BMT170152561.2,Phases=1,LineCode=tieSwitch1,Length=0.001,Units=km,switch=T !numEQ 147588
new line.CTR6599 bus1=BMT125137331.1,bus2=BMT125137380.1,Phases=1,LineCode=tieSwitch1,Length=0.001,Units=km,switch=T !numEQ 152719
new line.CTR80841 bus1=BMT125130625.1,bus2=BMT173149074.1,Phases=1,LineCode=tieSwitch1,Length=0.001,Units=km,switch=T !numEQ 26754
new line.CTR873176 bus1=BMT156674930.1,bus2=BMT166832864.1,Phases=1,LineCode=tieSwitch1,Length=0.001,Units=km,switch=T !numEQ 246068
new line.CTR874465 bus1=BMT157002451.3,bus2=BMT157002461.3,Phases=1,LineCode=tieSwitch1,Length=0.001,Units=km,switch=T !numEQ 238775
new line.CTR889283 bus1=BMT162760198.1,bus2=BMT162760696.1,Phases=1,LineCode=tieSwitch1,Length=0.001,Units=km,switch=T !numEQ 246763
new line.CTR112796 bus1=BMT125117227.3,bus2=BMT125127503.3,Phases=1,LineCode=tieSwitch1,Length=0.001,Units=km,switch=T !numEQ 99876
new line.CTR112817 bus1=BMT125119796.1,bus2=BMT165948258.1,Phases=1,LineCode=tieSwitch1,Length=0.001,Units=km,switch=T !numEQ 102982
new line.CTR140705 bus1=BMT125126656.2,bus2=BMT125126712.2,Phases=1,LineCode=tieSwitch1,Length=0.001,Units=km,switch=T !numEQ 143467
...