2024_89_CemigReconfigurationCases/1_AlimsCemig/SDEU15/alimSDEU15_VLN.Txt

SYMMETRICAL COMPONENT VOLTAGES BY BUS (for 3-phase buses)

Bus            Mag:   V1 (kV)    p.u.     V2 (kV)   %V2/V1    V0 (kV)    %V0/V1

bmt125127769      8.286       1.04  7.127E-007  8.601E-006   0.02564    0.3095
bmt165948270      8.194      1.028          0          0         0         0
bmt165948271      8.194      1.028          0          0         0         0
bmt2583705b       8.193      1.028          0          0         0         0
bmt165948273      8.194      1.028          0          0         0         0
bmt173136960      8.206       1.03     0.1044      1.272   0.05296    0.6453
bmt173136962      8.247      1.035          0          0         0         0
bmt125125081      8.195      1.029    0.05201     0.6347   0.03521    0.4297
bmt160818315      8.194      1.028     0.0521     0.6357   0.03522    0.4298
bmt125125627      8.187      1.028          0          0         0         0
bmt2607876b       8.186      1.027          0          0         0         0
bmt160818316      8.194      1.028    0.05216     0.6366   0.03523      0.43
bmt160818318      8.186      1.027          0          0         0         0
bmt2607827b       8.194      1.028    0.05222     0.6374   0.03524    0.4301
bmt1599729b       8.305      1.042    0.03625     0.4365   0.03121    0.3758
bmt2612447b       8.305      1.042    0.03625     0.4365   0.03121    0.3758
bmt168861588      8.305      1.042    0.03625     0.4365   0.03121    0.3758
bmt168861590      8.302      1.042          0          0         0         0
bmt168861587      8.305      1.042    0.03624     0.4363   0.03121    0.3758
bmt1599743b       8.305      1.042    0.03609     0.4346   0.03117    0.3753
bmt2621386b       8.305      1.042    0.03608     0.4344   0.03117    0.3753
bmt168861586      8.305      1.042    0.03606     0.4342   0.03117    0.3753
bmt157002451       8.31      1.043          0          0         0         0
bmt2621449b       8.305      1.042    0.03608     0.4344   0.03115    0.3751
bmt1599757b       8.306      1.042    0.03611     0.4347   0.03111    0.3746
bmt2622828b       8.306      1.042    0.03612     0.4349    0.0311    0.3744
bmt168861584      8.306      1.042    0.03614     0.4351   0.03108    0.3742
bmt168861585      8.304      1.042          0          0         0         0
bmt2623773b       8.306      1.043    0.03614     0.4351   0.03107    0.3741
bmt1599771b       8.306      1.043    0.03614     0.4351   0.03107     0.374
bmt2623780b       8.306      1.043    0.03614     0.4352   0.03106     0.374
bmt168861582      8.306      1.043    0.03617     0.4354   0.03102    0.3734
bmt168861583      8.303      1.042          0          0         0         0
bmt2623871b       8.307      1.043    0.03617     0.4354   0.03101    0.3733
bmt168861580      8.307      1.043    0.03616     0.4354   0.03099     0.373
bmt168861581      8.307      1.043    0.03616     0.4354   0.03099     0.373
bmt125139473      8.312      1.043          0          0         0         0
bmt168861597      8.307      1.043    0.03616     0.4354   0.03099     0.373
bmt1599799b       8.312      1.043          0          0         0         0
bmt125139585      8.312      1.043          0          0         0         0
bmt1599806b       8.179      1.027          0          0         0         0
bmt2624774b       8.178      1.026          0          0         0         0
bmt169225869      8.175      1.026          0          0         0         0
bmt169225871      8.175      1.026          0          0         0         0
bmt125125277      8.175      1.026          0          0         0         0
bmt2625488b       8.175      1.026          0          0         0         0
bmt169225872      8.175      1.026          0          0         0         0
bmt169225873      8.175      1.026          0          0         0         0
bmt2633552b       8.175      1.026          0          0         0         0
bmt169225875      8.173      1.026          0          0         0         0
bmt2615219b       8.173      1.026          0          0         0         0
bmt2615240b       8.173      1.026          0          0         0         0
bmt152729027       8.19      1.028    0.05265     0.6429   0.03529    0.4309
bmt152729028       8.19      1.028    0.05265     0.6429   0.03529     0.431
bmt2624578b       8.183      1.027          0          0         0         0
bmt152729029      8.183      1.027          0          0         0         0
bmt2907938b       8.183      1.027          0          0         0         0
bmt125117346      8.256      1.036    0.03643     0.4412   0.03825    0.4633
bmt173119500      8.249      1.035    0.03698     0.4483   0.03854    0.4672
bmt173216060      8.248      1.035          0          0         0         0
bmt2617081b       8.248      1.035          0          0         0         0
bmt125117360      8.257      1.036          0          0         0         0
bmt2617172b       8.241      1.034    0.03767     0.4571   0.03885    0.4714
bmt173216061      8.248      1.035          0          0         0         0
bmt173216062      8.248      1.035          0          0         0         0
bmt1599869b       8.248      1.035          0          0         0         0
bmt2617116b       8.248      1.035          0          0         0         0
bmt173216063      8.248      1.035          0          0         0         0
bmt173216064      8.248      1.035          0          0         0         0
bmt125124668      8.231      1.033          0          0         0         0
bmt125124675      8.231      1.033          0          0         0         0
bmt125117381      8.229      1.033    0.03897     0.4736   0.03936    0.4784
bmt2617305b       8.227      1.033    0.03919     0.4764   0.03945    0.4795
bmt125117577      8.257      1.036          0          0         0         0
bmt2617137b       8.257      1.036          0          0         0         0
bmt125124633      8.225      1.032          0          0         0         0
bmt2617347b       8.225      1.032          0          0         0         0
bmt125117388      8.225      1.032    0.03939     0.4789   0.03952    0.4804
bmt173119503      8.223      1.032    0.03964      0.482   0.03961    0.4817
bmt125124682      8.231      1.033          0          0         0         0
bmt125124696      8.231      1.033          0          0         0         0
bmt125124703      8.231      1.033          0          0         0         0
bmt173119507      8.214      1.031    0.04076     0.4962   0.04001     0.487
bmt173119508      8.214      1.031    0.04076     0.4962   0.04001     0.487
bmt173119509      8.212      1.031          0          0         0         0
bmt2609164b       8.213      1.031    0.04097     0.4989   0.04009    0.4881
bmt125124444      8.209       1.03          0          0         0         0
bmt125124451      8.209       1.03          0          0         0         0
bmt125117444      8.208       1.03     0.0416     0.5069   0.04031    0.4911
bmt2609185b       8.206       1.03    0.04182     0.5097   0.04039    0.4922
bmt125117437      8.212      1.031          0          0         0         0
bmt2610788b       8.212      1.031          0          0         0         0
bmt148802142      8.002      1.004          0          0         0         0
bmt8722337b       8.002      1.004          0          0         0         0
bmt148821051      8.001      1.004          0          0         0         0
bmt148821052      8.002      1.004          0          0         0         0
bmt148821053      8.002      1.004          0          0         0         0
bmt125127209      7.887     0.9899          0          0         0         0
bmt2616563b       7.887     0.9899          0          0         0         0
bmt1599456b       7.887     0.9899          0          0         0         0
bmt125127216      7.887     0.9899          0          0         0         0
bmt125127223      7.887     0.9899          0          0         0         0
bmt125127230      7.887     0.9899          0          0         0         0
bmt2616591b       7.887     0.9899          0          0         0         0
bmt125117297      7.959      0.999    0.06093     0.7655   0.05013    0.6298
bmt2616605b       7.957     0.9987    0.06151      0.773   0.05034    0.6327
bmt125127167       7.87     0.9878          0          0         0         0
bmt2878153b        7.87     0.9878          0          0         0         0
bmt125117325      8.263      1.037    0.03598     0.4354     0.038    0.4599
bmt125117332       8.26      1.037    0.03618      0.438   0.03812    0.4615
bmt163562801      8.263      1.037    0.03598     0.4355     0.038    0.4599
bmt2616640b       8.262      1.037    0.03612     0.4372   0.03796    0.4595
bmt173119499       8.26      1.037    0.03618      0.438   0.03812    0.4615
bmt163562802      8.262      1.037     0.0362     0.4381   0.03794    0.4593
bmt163562803       8.26      1.037          0          0         0         0
bmt2616731b       8.258      1.036    0.03718     0.4503    0.0377    0.4565
bmt163818035      8.255      1.036     0.0379     0.4591   0.03752    0.4546
bmt163817668      8.254      1.036    0.03802     0.4606   0.03749    0.4542
bmt163818040      8.251      1.036    0.03872     0.4693   0.03733    0.4524
bmt163818041      8.249      1.035     0.0392     0.4751   0.03721     0.451
bmt2616836b        8.26      1.037          0          0         0         0
bmt163818043      8.258      1.036          0          0         0         0
bmt2616962b       8.249      1.035    0.03931     0.4766   0.03718    0.4507
bmt125124815      8.243      1.035    0.04053     0.4917   0.03687    0.4473
bmt163818044       8.24      1.034    0.04132     0.5014   0.03667    0.4451
bmt160348502      8.246      1.035          0          0         0         0
bmt2616983b       8.246      1.035          0          0         0         0
bmt163818045       8.23      1.033          0          0         0         0
bmt2609528b       8.239      1.034    0.04153      0.504   0.03662    0.4445
bmt125124836      8.238      1.034    0.04192     0.5089   0.03653    0.4434
bmt163818046      8.237      1.034    0.04225      0.513   0.03646    0.4426
bmt125127013      8.228      1.033          0          0         0         0
bmt2609983b       8.228      1.033          0          0         0         0
bmt163818047      8.241      1.034          0          0         0         0
bmt3102531b       8.236      1.034     0.0424     0.5148   0.03642    0.4422
bmt125127020      8.228      1.033          0          0         0         0
bmt125127027      8.228      1.033          0          0         0         0
bmt2609570b       8.228      1.033          0          0         0         0
bmt1599568b       8.227      1.033          0          0         0         0
bmt2609507b       8.227      1.033          0          0         0         0
bmt163818048      8.232      1.033    0.04349     0.5283   0.03618    0.4395
bmt163818049      8.222      1.032          0          0         0         0
bmt3102566b       8.229      1.033    0.04405     0.5353   0.03606    0.4382
bmt1599582b       8.227      1.033    0.04462     0.5424   0.03594    0.4368
bmt3102657b       8.227      1.033     0.0447     0.5434   0.03592    0.4366
bmt163818050      8.224      1.032    0.04538     0.5518   0.03578     0.435
bmt163818051      8.214      1.031          0          0         0         0
bmt163818052      8.222      1.032    0.04597     0.5591   0.03566    0.4337
bmt163818053      8.221      1.032    0.04621     0.5622   0.03562    0.4333
bmt160818300      8.218      1.031    0.04695     0.5714   0.03547    0.4316
bmt160818301      8.217      1.031          0          0         0         0
bmt3102762b       8.217      1.031    0.04711     0.5733   0.03543    0.4312
bmt160818304      8.213      1.031    0.04811     0.5858    0.0352    0.4286
bmt3102839b       8.225      1.032          0          0         0         0
bmt3102888b       8.212      1.031    0.04825     0.5875   0.03517    0.4282
bmt160818306      8.211      1.031    0.04856     0.5913    0.0351    0.4275
bmt160818307      8.209       1.03          0          0         0         0
bmt3103077b       8.201      1.029          0          0         0         0
bmt3103084b       8.209       1.03    0.04912     0.5983   0.03497     0.426
bmt136045949      8.206       1.03     0.0497     0.6056   0.03484    0.4245
bmt3103140b       8.206       1.03    0.04981      0.607   0.03486    0.4248
bmt1599631b       8.204       1.03    0.05025     0.6125   0.03493    0.4257
bmt1985513b       8.203       1.03    0.05037     0.6141   0.03494     0.426
bmt163923429      8.193      1.028          0          0         0         0
bmt163923430      8.193      1.028          0          0         0         0
bmt2607589b       8.191      1.028          0          0         0         0
bmt125125886      8.185      1.027          0          0         0         0
bmt163923431      8.185      1.027          0          0         0         0
bmt125126642      8.185      1.027          0          0         0         0
bmt125126649      8.185      1.027          0          0         0         0
bmt163923432      8.184      1.027          0          0         0         0
bmt125126656      8.185      1.027          0          0         0         0
bmt125126663      8.185      1.027          0          0         0         0
bmt159797156      8.178      1.026          0          0         0         0
bmt159797157      8.178      1.026          0          0         0         0
bmt2608107b       8.177      1.026          0          0         0         0
bmt125126530      8.168      1.025          0          0         0         0
bmt125126537      8.168      1.025          0          0         0         0
bmt125125970      8.168      1.025          0          0         0         0
bmt2605874b       8.168      1.025          0          0         0         0
bmt8707292b       8.187      1.028          0          0         0         0
bmt160818317      8.187      1.028          0          0         0         0
bmt161513891       8.29      1.041    0.01979     0.2387   0.03529    0.4257
bmt8708822b        8.29      1.041    0.01979     0.2387   0.03529    0.4257
bmt8708824b        8.29      1.041    0.01979     0.2387   0.03529    0.4257
bmt8708825b        8.29       1.04    0.01979     0.2387   0.03529    0.4257
bmt148388155       8.29       1.04    0.01979     0.2387   0.03529    0.4257
bmt161513867       8.29       1.04    0.01979     0.2387   0.03529    0.4257
bmt161513868       8.29       1.04    0.01979     0.2387   0.03529    0.4257
bmt170301167      8.098      1.016          0          0         0         0
bmt2589592b       8.097      1.016          0          0         0         0
bmt2589599b       8.098      1.016          0          0         0         0
bmt170301168      8.097      1.016          0          0         0         0
bmt170301170      8.097      1.016          0          0         0         0
bmt2588955b       8.097      1.016          0          0         0         0
bmt2589522b       8.097      1.016          0          0         0         0
bmt170301171      8.097      1.016          0          0         0         0
bmt2588920b       8.097      1.016          0          0         0         0
bmt2588934b       8.097      1.016          0          0         0         0
bmt1600275b       8.097      1.016          0          0         0         0
bmt170301172      8.097      1.016          0          0         0         0
bmt1600282b       8.082      1.014      0.063     0.7795    0.0474    0.5865
bmt2595192b       8.081      1.014    0.06318     0.7818   0.04746    0.5873
bmt125123478      8.126       1.02          0          0         0         0
bmt125123485      8.126       1.02          0          0         0         0
bmt2594548b       8.126       1.02          0          0         0         0
bmt125123492      8.125       1.02          0          0         0         0
bmt2170789b       8.125       1.02          0          0         0         0
bmt2594618b       8.125       1.02          0          0         0         0
bmt2594744b       8.125       1.02          0          0         0         0
bmt1600303b       8.124       1.02          0          0         0         0
bmt125123520      8.123       1.02          0          0         0         0
bmt1600310b       8.125       1.02          0          0         0         0
bmt2594723b       8.125       1.02          0          0         0         0
bmt165523431      8.073      1.013    0.06507      0.806   0.04806    0.5953
bmt165523432      8.073      1.013    0.06509     0.8063   0.04806    0.5953
bmt2588353b       8.071      1.013    0.06568     0.8138   0.04825    0.5979
bmt125117703      8.073      1.013    0.06509     0.8063   0.04806    0.5953
bmt1600331b       8.063      1.012    0.06755     0.8377   0.04884    0.6057
bmt2588346b        8.06      1.012    0.06844     0.8491   0.04912    0.6095
bmt125117682      8.059      1.011    0.06874      0.853   0.04922    0.6107
bmt2588339b       8.055      1.011    0.06973     0.8657   0.04954     0.615
bmt157862827      8.102      1.017          0          0         0         0
bmt2936722b       8.102      1.017          0          0         0         0
bmt125117689      8.053      1.011    0.07039     0.8741   0.04975    0.6178
bmt125117696      8.052      1.011    0.07068     0.8778   0.04985    0.6191
bmt125123345      8.003      1.004          0          0         0         0
bmt2588311b       8.002      1.004          0          0         0         0
bmt137662739      8.052      1.011    0.07068     0.8778   0.04985    0.6191
bmt2588304b       8.051       1.01    0.07104     0.8824   0.04997    0.6208
bmt125123352      8.002      1.004          0          0         0         0
bmt125123359      8.002      1.004          0          0         0         0
bmt2588318b       8.002      1.004          0          0         0         0
bmt137662746      8.047       1.01    0.07205     0.8954   0.05031    0.6252
bmt2588290b       8.046       1.01    0.07236     0.8994   0.05041    0.6266
bmt163622834      7.994      1.003          0          0         0         0
bmt163622835      7.994      1.003          0          0         0         0
bmt125117752       8.03      1.008    0.07656     0.9535    0.0518    0.6451
bmt125117766      8.026      1.007    0.07764     0.9674   0.05217      0.65
bmt160982865      7.971          1          0          0         0         0
bmt2898033b       7.971          1          0          0         0         0
bmt1600380b       8.018      1.006    0.07993      0.997   0.05283    0.6589
bmt2588192b       8.017      1.006    0.08013     0.9995   0.05288    0.6596
bmt125122771      8.071      1.013          0          0         0         0
bmt1600401b       8.071      1.013          0          0         0         0
bmt125117773      8.011      1.005    0.08197      1.023   0.05341    0.6667
bmt2588178b        8.01      1.005    0.08228      1.027    0.0535     0.668
bmt125117850      8.328      1.045    0.07498     0.9004    0.0537    0.6448
bmt125117857      8.321      1.044    0.07612     0.9148   0.05381    0.6466
bmt125122659       8.32      1.044          0          0         0         0
bmt2578805b       8.319      1.044          0          0         0         0
bmt125122778      8.071      1.013          0          0         0         0
bmt125117864      8.318      1.044     0.0769     0.9245   0.05383    0.6472
bmt125122547      8.347      1.048          0          0         0         0
bmt2578343b       8.346      1.048          0          0         0         0
bmt1600415b       8.319      1.044          0          0         0         0
bmt2578826b       8.319      1.044          0          0         0         0
bmt1600422b       8.318      1.044          0          0         0         0
bmt1600429b       8.317      1.044          0          0         0         0
bmt125122673      8.317      1.044          0          0         0         0
bmt125117871      8.318      1.044     0.0769     0.9246   0.05383    0.6471
bmt125117878      8.314      1.044    0.07761     0.9334   0.05385    0.6477
bmt125122554      8.346      1.047          0          0         0         0
bmt125122561      8.345      1.047          0          0         0         0
bmt2577524b       8.346      1.047          0          0         0         0
bmt1600450b       8.345      1.047          0          0         0         0
bmt125122575      8.345      1.047          0          0         0         0
bmt125122589      8.345      1.047          0          0         0         0
bmt2577489b       8.345      1.047          0          0         0         0
bmt1600464b       8.345      1.047          0          0         0         0
bmt125122596      8.345      1.047          0          0         0         0
bmt158778394      8.222      1.032     0.1015      1.235   0.05341    0.6496
bmt148389398      8.221      1.032     0.1016      1.236    0.0534    0.6495
bmt1912468b       8.221      1.032     0.1017      1.237   0.05338    0.6493
bmt173136951      8.221      1.032     0.1016      1.236    0.0534    0.6495
bmt163923434      8.184      1.027          0          0         0         0
bmt1599064b       8.227      1.033   0.005066    0.06157   0.02851    0.3466
bmt2373852b       8.225      1.032   0.005302    0.06447   0.02865    0.3483
bmt169432984      8.161      1.024    0.01145     0.1403   0.03205    0.3927
bmt2595913b        8.16      1.024    0.01163     0.1425   0.03212    0.3936
bmt1599148b       8.159      1.024    0.01195     0.1465   0.03224    0.3952
bmt169432985      8.156      1.024    0.01257     0.1541   0.03248    0.3982
bmt169432986      8.188      1.028          0          0         0         0
bmt169432987      8.146      1.022    0.01497     0.1838   0.03338    0.4098
bmt169432988      8.143      1.022          0          0         0         0
bmt2595962b       8.137      1.021    0.01693      0.208    0.0341    0.4191
bmt1599169b       8.129       1.02    0.01884     0.2317    0.0348    0.4281
bmt2611880b       8.124       1.02    0.02011     0.2475   0.03527    0.4341
bmt169432989      8.115      1.019    0.02217     0.2732   0.03602    0.4438
bmt169432990      8.102      1.017    0.02542     0.3137   0.03719    0.4591
bmt2624410b       8.153      1.023          0          0         0         0
bmt125117178      8.088      1.015    0.02874     0.3553    0.0384    0.4747
bmt125117192      8.073      1.013    0.03253      0.403   0.03978    0.4928
bmt163888609      8.131       1.02          0          0         0         0
bmt2616178b       8.131       1.02          0          0         0         0
bmt2616556b        8.06      1.012    0.03568     0.4427   0.04093    0.5078
bmt125122428      8.285       1.04          0          0         0         0
bmt2587884b       8.285       1.04          0          0         0         0
bmt125122365      8.266      1.037          0          0         0         0
bmt2587842b       8.266      1.037          0          0         0         0
bmt125117934      8.288       1.04    0.08303      1.002   0.05425    0.6546
bmt2588066b       8.287       1.04    0.08319      1.004   0.05427    0.6549
bmt125122435      8.285       1.04          0          0         0         0
bmt125122442      8.285       1.04          0          0         0         0
bmt125122449      8.285       1.04          0          0         0         0
bmt2574864b       8.285       1.04          0          0         0         0
bmt1600555b       8.285       1.04          0          0         0         0
bmt2574913b       8.285       1.04          0          0         0         0
bmt125117948      8.268      1.038    0.08755      1.059   0.05474     0.662
bmt2582347b       8.267      1.038    0.08771      1.061   0.05475    0.6623
bmt169225712      8.239      1.034          0          0         0         0
bmt2582438b       8.239      1.034          0          0         0         0
bmt125122372      8.266      1.037          0          0         0         0
bmt125122379      8.266      1.037          0          0         0         0
bmt125122407      8.266      1.037          0          0         0         0
bmt2587821b       8.266      1.037          0          0         0         0
bmt125122386      8.266      1.037          0          0         0         0
bmt154998680      8.263      1.037    0.08857      1.072   0.05486    0.6639
bmt2583362b       8.262      1.037    0.08877      1.074   0.05488    0.6643
bmt169225713      8.237      1.034          0          0         0         0
bmt2575025b       8.237      1.034          0          0         0         0
bmt2582508b       8.237      1.034          0          0         0         0
bmt1600590b       8.235      1.034          0          0         0         0
bmt2575039b       8.235      1.034          0          0         0         0
bmt169225714      8.235      1.034          0          0         0         0
bmt169225717      8.235      1.034          0          0         0         0
bmt2575095b       8.235      1.034          0          0         0         0
bmt1600604b       8.234      1.033          0          0         0         0
bmt2575060b       8.234      1.033          0          0         0         0
bmt169225719      8.233      1.033          0          0         0         0
bmt2575102b       8.233      1.033          0          0         0         0
bmt2575116b       8.233      1.033          0          0         0         0
bmt169225722      8.233      1.033          0          0         0         0
bmt2575123b       8.233      1.033          0          0         0         0
bmt125122092      8.233      1.033          0          0         0         0
bmt2575130b       8.233      1.033          0          0         0         0
bmt169225731      8.233      1.033          0          0         0         0
bmt2575165b       8.233      1.033          0          0         0         0
bmt2575354b       8.233      1.033          0          0         0         0
bmt1600632b       8.232      1.033          0          0         0         0
bmt2575249b       8.232      1.033          0          0         0         0
bmt125122106      8.233      1.033          0          0         0         0
bmt2575333b       8.233      1.033          0          0         0         0
bmt169225729      8.233      1.033          0          0         0         0
bmt2576740b       8.233      1.033          0          0         0         0
bmt125122113      8.233      1.033          0          0         0         0
bmt169225724      8.233      1.033          0          0         0         0
bmt169225725      8.233      1.033          0          0         0         0
bmt2575326b       8.233      1.033          0          0         0         0
bmt1600653b       8.233      1.033          0          0         0         0
bmt2575396b       8.233      1.033          0          0         0         0
bmt1600660b       8.233      1.033          0          0         0         0
bmt125122134      8.233      1.033          0          0         0         0
bmt169225726      8.233      1.033          0          0         0         0
bmt169225727      8.233      1.033          0          0         0         0
bmt2575305b       8.233      1.033          0          0         0         0
bmt1600674b       8.233      1.033          0          0         0         0
bmt169225728      8.233      1.033          0          0         0         0
bmt169225750      8.232      1.033          0          0         0         0
bmt2009607b       8.232      1.033          0          0         0         0
bmt125122183      8.232      1.033          0          0         0         0
bmt2575256b       8.232      1.033          0          0         0         0
bmt1600688b       8.232      1.033          0          0         0         0
bmt2575263b       8.232      1.033          0          0         0         0
bmt169225732      8.232      1.033          0          0         0         0
bmt169225733      8.232      1.033          0          0         0         0
bmt2575270b       8.232      1.033          0          0         0         0
bmt154998681      8.261      1.037    0.08897      1.077   0.05491    0.6646
bmt125117976      8.261      1.037    0.08898      1.077   0.05491    0.6647
bmt125127601      8.081      1.014          0          0         0         0
bmt2847640b       8.081      1.014          0          0         0         0
bmt163888610       8.13       1.02          0          0         0         0
bmt163888611       8.13       1.02          0          0         0         0
bmt163888612       8.13       1.02          0          0         0         0
bmt163888615      8.129       1.02          0          0         0         0
bmt2616234b       8.129       1.02          0          0         0         0
bmt2616255b       8.129       1.02          0          0         0         0
bmt163888620       8.13       1.02          0          0         0         0
bmt2616185b        8.13       1.02          0          0         0         0
bmt163888622       8.13       1.02          0          0         0         0
bmt1910158b        8.13       1.02          0          0         0         0
bmt1599225b       8.059      1.011    0.03613     0.4484   0.04109    0.5099
bmt2616549b       8.054      1.011    0.03715     0.4613   0.04147    0.5148
bmt125117199      8.047       1.01    0.03898     0.4844   0.04213    0.5236
bmt1599239b       8.043       1.01    0.03991     0.4962   0.04247     0.528
bmt125127573      7.986      1.002          0          0         0         0
bmt125127580      7.986      1.002          0          0         0         0
...